# SFR package for  MODFLOW-NWT, generated by Flopy.
reachinput 
195 15 0 0 86400.00000000 0.00010000 55 81 3 15 1 50 
1 19 63 1 1 127.0 2086.911 0.0009877096 0.5 0.1 0.31 0.131 3.5 0.1
1 20 64 1 2 109.0 2082.1008 0.0007393579 0.5 0.1 0.31 0.131 3.5 0.1
1 21 64 1 3 109.0 2078.2605 0.0011981447 0.5 0.1 0.31 0.131 3.5 0.1
1 22 65 1 4 127.0 2072.015 0.0012816736 0.5 0.1 0.31 0.131 3.5 0.1
1 23 66 1 5 127.0 2060.2717 0.0013169922 0.5 0.1 0.31 0.131 3.5 0.1
1 24 67 1 6 109.0 2052.794 0.0008144862 0.5 0.1 0.31 0.131 3.5 0.1
1 25 67 1 7 90.0 2049.6794 0.00061431737 0.5 0.1 0.31 0.131 3.5 0.1
1 26 67 1 8 109.0 2046.9075 0.00075021136 0.5 0.1 0.31 0.131 3.5 0.1
1 27 68 1 9 127.0 2044.7538 0.00016126008 0.5 0.1 0.31 0.131 3.5 0.1
1 28 69 1 10 127.0 2043.8915 0.0002967898 0.5 0.1 0.31 0.131 3.5 0.1
1 29 70 1 11 127.0 2042.9908 0.0007026582 0.5 0.1 0.31 0.131 3.5 0.1
1 30 71 1 12 109.0 2041.522 0.0009009907 0.5 0.1 0.31 0.131 3.5 0.1
1 31 71 1 13 109.0 2039.485 0.00084166037 0.5 0.1 0.31 0.131 3.5 0.1
1 32 72 1 14 109.0 2032.3557 0.0009435097 0.5 0.1 0.31 0.131 3.5 0.1
1 33 72 1 15 90.0 2028.4607 0.0010412725 0.5 0.1 0.31 0.131 3.5 0.1
1 34 72 1 16 109.0 2022.3654 0.0014365496 0.5 0.1 0.31 0.131 3.5 0.1
1 35 73 1 17 109.0 2009.7347 0.0017478482 0.5 0.1 0.31 0.131 3.5 0.1
1 36 73 1 18 109.0 2005.5596 0.0010257844 0.5 0.1 0.31 0.131 3.5 0.1
1 37 72 1 19 109.0 1996.6765 0.0026977574 0.5 0.1 0.31 0.131 3.5 0.1
1 38 72 1 20 90.0 1983.8217 0.0025741656 0.5 0.1 0.31 0.131 3.5 0.1
1 39 72 1 21 90.0 1972.3667 0.0015159291 0.5 0.1 0.31 0.131 3.5 0.1
1 40 72 1 22 90.0 1963.9281 0.0011234528 0.5 0.1 0.31 0.131 3.5 0.1
1 41 72 1 23 109.0 1956.737 0.0007663033 0.5 0.1 0.31 0.131 3.5 0.1
1 42 73 1 24 127.0 1946.719 0.0008943831 0.5 0.1 0.31 0.131 3.5 0.1
1 24 51 2 1 90.0 2077.9148 0.0025330847 0.5 0.1 0.31 0.131 3.5 0.1
1 25 51 2 2 90.0 2067.6409 0.0023171348 0.5 0.1 0.31 0.131 3.5 0.1
1 26 51 2 3 90.0 2058.5408 0.0016468698 0.5 0.1 0.31 0.131 3.5 0.1
1 27 51 2 4 109.0 2050.0093 0.0011865454 0.5 0.1 0.31 0.131 3.5 0.1
1 28 52 2 5 109.0 2039.4352 0.0014377438 0.5 0.1 0.31 0.131 3.5 0.1
1 29 52 2 6 109.0 2032.268 0.0010147026 0.5 0.1 0.31 0.131 3.5 0.1
1 30 53 2 7 109.0 2024.3944 0.0010885961 0.5 0.1 0.31 0.131 3.5 0.1
1 31 53 2 8 109.0 2019.1292 0.001142146 0.5 0.1 0.31 0.131 3.5 0.1
1 32 54 2 9 109.0 2013.3123 0.000910061 0.5 0.1 0.31 0.131 3.5 0.1
1 33 54 2 10 109.0 2008.4725 0.0012203393 0.5 0.1 0.31 0.131 3.5 0.1
1 34 55 2 11 109.0 2002.958 0.00090448477 0.5 0.1 0.31 0.131 3.5 0.1
1 35 55 2 12 90.0 1998.6705 0.0008625527 0.5 0.1 0.31 0.131 3.5 0.1
1 36 55 2 13 109.0 1995.047 0.000572468 0.5 0.1 0.31 0.131 3.5 0.1
1 37 56 2 14 127.0 1989.5931 0.00063966727 0.5 0.1 0.31 0.131 3.5 0.1
1 38 57 2 15 127.0 1984.7439 0.00081131555 0.5 0.1 0.31 0.131 3.5 0.1
1 39 58 2 16 109.0 1978.7246 0.0011812503 0.5 0.1 0.31 0.131 3.5 0.1
1 39 40 3 1 154.0 2051.0605 0.0009796784 0.5 0.1 0.31 0.131 3.5 0.1
1 38 41 3 2 127.0 2045.0717 0.0013631018 0.5 0.1 0.31 0.131 3.5 0.1
1 37 42 3 3 127.0 2036.6934 0.0009913198 0.5 0.1 0.31 0.131 3.5 0.1
1 36 43 3 4 109.0 2031.778 0.0010099503 0.5 0.1 0.31 0.131 3.5 0.1
1 36 44 3 5 90.0 2027.8279 0.00081691623 0.5 0.1 0.31 0.131 3.5 0.1
1 36 45 3 6 109.0 2023.8934 0.0007430575 0.5 0.1 0.31 0.131 3.5 0.1
1 37 46 3 7 127.0 2019.6044 0.00092624757 0.5 0.1 0.31 0.131 3.5 0.1
1 38 47 3 8 109.0 2015.7749 0.0008675896 0.5 0.1 0.31 0.131 3.5 0.1
1 38 48 3 9 90.0 2012.1885 0.00064081384 0.5 0.1 0.31 0.131 3.5 0.1
1 38 49 3 10 90.0 2008.9214 0.00093036296 0.5 0.1 0.31 0.131 3.5 0.1
1 38 50 4 1 173.0 2004.9027 0.0013054117 0.5 0.1 0.31 0.131 3.5 0.1
1 39 51 4 2 109.0 1997.1887 0.0013837575 0.5 0.1 0.31 0.131 3.5 0.1
1 39 52 4 3 90.0 1992.061 0.0012998986 0.5 0.1 0.31 0.131 3.5 0.1
1 39 53 4 4 109.0 1987.0093 0.0015598756 0.5 0.1 0.31 0.131 3.5 0.1
1 40 54 4 5 109.0 1984.0137 0.000650263 0.5 0.1 0.31 0.131 3.5 0.1
1 40 55 4 6 90.0 1982.4098 0.00044796895 0.5 0.1 0.31 0.131 3.5 0.1
1 40 56 4 7 90.0 1979.795 0.00093045196 0.5 0.1 0.31 0.131 3.5 0.1
1 40 57 4 8 90.0 1977.5175 0.0014788742 0.5 0.1 0.31 0.131 3.5 0.1
1 40 36 5 1 173.0 2081.081 0.00093004375 0.5 0.1 0.31 0.131 3.5 0.1
1 39 37 5 2 109.0 2072.12 0.0016159723 0.5 0.1 0.31 0.131 3.5 0.1
1 39 38 5 3 90.0 2065.1172 0.0013572271 0.5 0.1 0.31 0.131 3.5 0.1
1 39 39 5 4 90.0 2057.7705 0.0010205759 0.5 0.1 0.31 0.131 3.5 0.1
1 58 53 6 1 127.0 2146.5103 0.0016767298 0.5 0.1 0.31 0.131 3.5 0.1
1 57 52 6 2 109.0 2131.8154 0.0018784213 0.5 0.1 0.31 0.131 3.5 0.1
1 56 52 6 3 109.0 2121.9148 0.0013619752 0.5 0.1 0.31 0.131 3.5 0.1
1 55 51 6 4 127.0 2117.284 0.00061022915 0.5 0.1 0.31 0.131 3.5 0.1
1 54 50 6 5 109.0 2113.4343 0.001000056 0.5 0.1 0.31 0.131 3.5 0.1
1 53 50 6 6 109.0 2110.2063 0.0012987504 0.5 0.1 0.31 0.131 3.5 0.1
1 52 49 6 7 127.0 2106.0881 0.0009175555 0.5 0.1 0.31 0.131 3.5 0.1
1 51 48 6 8 109.0 2102.2886 0.0010715392 0.5 0.1 0.31 0.131 3.5 0.1
1 50 48 6 9 90.0 2099.7932 0.0009507605 0.5 0.1 0.31 0.131 3.5 0.1
1 49 48 6 10 90.0 2093.8289 0.0019265397 0.5 0.1 0.31 0.131 3.5 0.1
1 48 48 6 11 90.0 2085.4255 0.0018289343 0.5 0.1 0.31 0.131 3.5 0.1
1 47 48 6 12 90.0 2076.975 0.0013168507 0.5 0.1 0.31 0.131 3.5 0.1
1 46 48 6 13 109.0 2068.9944 0.001070855 0.5 0.1 0.31 0.131 3.5 0.1
1 45 47 6 14 109.0 2057.3604 0.0014735083 0.5 0.1 0.31 0.131 3.5 0.1
1 44 47 6 15 90.0 2051.264 0.0011904201 0.5 0.1 0.31 0.131 3.5 0.1
1 43 47 6 16 109.0 2043.3883 0.0009686312 0.5 0.1 0.31 0.131 3.5 0.1
1 42 48 6 17 109.0 2032.6019 0.0012954635 0.5 0.1 0.31 0.131 3.5 0.1
1 41 48 6 18 90.0 2026.9261 0.00096634356 0.5 0.1 0.31 0.131 3.5 0.1
1 40 48 6 19 109.0 2020.4652 0.00096577953 0.5 0.1 0.31 0.131 3.5 0.1
1 39 49 6 20 127.0 2012.6388 0.0006111168 0.5 0.1 0.31 0.131 3.5 0.1
1 41 24 7 1 90.0 2213.9595 0.002224494 0.5 0.1 0.31 0.131 3.5 0.1
1 41 25 7 2 90.0 2196.8865 0.0022702701 0.5 0.1 0.31 0.131 3.5 0.1
1 41 26 7 3 90.0 2179.327 0.0021966149 0.5 0.1 0.31 0.131 3.5 0.1
1 41 27 7 4 90.0 2166.1487 0.0013323581 0.5 0.1 0.31 0.131 3.5 0.1
1 41 28 7 5 90.0 2154.9814 0.0015018601 0.5 0.1 0.31 0.131 3.5 0.1
1 41 29 7 6 90.0 2142.2537 0.0016731123 0.5 0.1 0.31 0.131 3.5 0.1
1 41 30 7 7 109.0 2131.083 0.0011568381 0.5 0.1 0.31 0.131 3.5 0.1
1 40 31 7 8 109.0 2120.446 0.001026634 0.5 0.1 0.31 0.131 3.5 0.1
1 40 32 7 9 90.0 2112.9775 0.0009271732 0.5 0.1 0.31 0.131 3.5 0.1
1 40 33 7 10 90.0 2103.8538 0.0011383835 0.5 0.1 0.31 0.131 3.5 0.1
1 40 34 7 11 90.0 2096.1294 0.0010106816 0.5 0.1 0.31 0.131 3.5 0.1
1 40 35 7 12 90.0 2087.1284 0.0010636892 0.5 0.1 0.31 0.131 3.5 0.1
1 63 40 8 1 90.0 2151.1714 0.0002186823 0.5 0.1 0.31 0.131 3.5 0.1
1 62 40 8 2 90.0 2149.236 0.00032007784 0.5 0.1 0.31 0.131 3.5 0.1
1 61 40 8 3 90.0 2146.662 0.00046957546 0.5 0.1 0.31 0.131 3.5 0.1
1 60 40 8 4 109.0 2142.8967 0.00063764985 0.5 0.1 0.31 0.131 3.5 0.1
1 59 41 8 5 109.0 2137.43 0.00081041857 0.5 0.1 0.31 0.131 3.5 0.1
1 58 41 8 6 90.0 2133.8545 0.0006425405 0.5 0.1 0.31 0.131 3.5 0.1
1 57 41 8 7 90.0 2131.225 0.0005460725 0.5 0.1 0.31 0.131 3.5 0.1
1 56 41 8 8 90.0 2128.7163 0.0004245616 0.5 0.1 0.31 0.131 3.5 0.1
1 55 41 8 9 90.0 2126.1248 0.00051723653 0.5 0.1 0.31 0.131 3.5 0.1
1 54 41 8 10 90.0 2123.8413 0.00072207284 0.5 0.1 0.31 0.131 3.5 0.1
1 53 41 8 11 109.0 2120.3103 0.0007866148 0.5 0.1 0.31 0.131 3.5 0.1
1 52 40 8 12 127.0 2115.2595 0.0016589462 0.5 0.1 0.31 0.131 3.5 0.1
1 51 39 8 13 109.0 2109.9524 0.001517218 0.5 0.1 0.31 0.131 3.5 0.1
1 50 39 8 14 90.0 2105.5112 0.0010586503 0.5 0.1 0.31 0.131 3.5 0.1
1 49 39 8 15 90.0 2101.6553 0.0012933319 0.5 0.1 0.31 0.131 3.5 0.1
1 48 39 8 16 90.0 2097.4028 0.0013167473 0.5 0.1 0.31 0.131 3.5 0.1
1 47 39 8 17 90.0 2092.3362 0.0011163716 0.5 0.1 0.31 0.131 3.5 0.1
1 46 39 8 18 90.0 2086.6772 0.0015717099 0.5 0.1 0.31 0.131 3.5 0.1
1 45 39 8 19 109.0 2081.4333 0.0018985354 0.5 0.1 0.31 0.131 3.5 0.1
1 44 40 8 20 109.0 2073.4204 0.0013294364 0.5 0.1 0.31 0.131 3.5 0.1
1 43 40 8 21 90.0 2069.416 0.0008191931 0.5 0.1 0.31 0.131 3.5 0.1
1 42 40 8 22 90.0 2065.6833 0.0010541347 0.5 0.1 0.31 0.131 3.5 0.1
1 41 40 8 23 90.0 2060.369 0.0008514059 0.5 0.1 0.31 0.131 3.5 0.1
1 40 40 8 24 90.0 2056.6394 0.0007113317 0.5 0.1 0.31 0.131 3.5 0.1
1 40 58 9 1 154.0 1975.103 0.000965792 0.5 0.1 0.31 0.131 3.5 0.1
1 41 59 9 2 109.0 1973.4602 0.0003393732 0.5 0.1 0.31 0.131 3.5 0.1
1 41 60 9 3 90.0 1972.3993 0.00021936819 0.5 0.1 0.31 0.131 3.5 0.1
1 41 61 9 4 90.0 1971.1747 0.00022120542 0.5 0.1 0.31 0.131 3.5 0.1
1 41 62 9 5 90.0 1969.7119 0.00029850318 0.5 0.1 0.31 0.131 3.5 0.1
1 41 63 9 6 90.0 1967.5095 0.000498634 0.5 0.1 0.31 0.131 3.5 0.1
1 41 64 9 7 109.0 1965.7677 0.0010756053 0.5 0.1 0.31 0.131 3.5 0.1
1 55 14 10 1 127.0 2387.3738 0.0017955649 0.5 0.1 0.31 0.131 3.5 0.1
1 54 15 10 2 109.0 2375.1238 0.0018575356 0.5 0.1 0.31 0.131 3.5 0.1
1 53 15 10 3 109.0 2366.724 0.0012966262 0.5 0.1 0.31 0.131 3.5 0.1
1 52 16 10 4 127.0 2353.5376 0.0010385049 0.5 0.1 0.31 0.131 3.5 0.1
1 51 17 10 5 109.0 2345.4644 0.000848473 0.5 0.1 0.31 0.131 3.5 0.1
1 51 18 10 6 109.0 2338.381 0.00091692404 0.5 0.1 0.31 0.131 3.5 0.1
1 50 19 10 7 109.0 2330.7468 0.0010128241 0.5 0.1 0.31 0.131 3.5 0.1
1 50 20 10 8 90.0 2324.0894 0.0017946825 0.5 0.1 0.31 0.131 3.5 0.1
1 50 21 10 9 90.0 2315.265 0.0025964594 0.5 0.1 0.31 0.131 3.5 0.1
1 50 22 10 10 109.0 2305.035 0.0032968249 0.5 0.1 0.31 0.131 3.5 0.1
1 49 23 10 11 127.0 2285.6462 0.0038552845 0.5 0.1 0.31 0.131 3.5 0.1
1 48 24 10 12 127.0 2259.0479 0.0029734795 0.5 0.1 0.31 0.131 3.5 0.1
1 47 25 10 13 127.0 2234.508 0.0027587954 0.5 0.1 0.31 0.131 3.5 0.1
1 46 26 10 14 109.0 2215.4866 0.0018715134 0.5 0.1 0.31 0.131 3.5 0.1
1 46 27 10 15 90.0 2204.0173 0.0017083447 0.5 0.1 0.31 0.131 3.5 0.1
1 46 28 10 16 90.0 2190.8848 0.0018635239 0.5 0.1 0.31 0.131 3.5 0.1
1 46 29 10 17 90.0 2178.5007 0.0021397914 0.5 0.1 0.31 0.131 3.5 0.1
1 46 30 10 18 109.0 2166.8577 0.0018635696 0.5 0.1 0.31 0.131 3.5 0.1
1 45 31 10 19 127.0 2151.3154 0.0016573904 0.5 0.1 0.31 0.131 3.5 0.1
1 44 32 10 20 127.0 2133.4004 0.0016390965 0.5 0.1 0.31 0.131 3.5 0.1
1 43 33 10 21 127.0 2118.3872 0.0011875593 0.5 0.1 0.31 0.131 3.5 0.1
1 42 34 10 22 127.0 2106.5667 0.0011155898 0.5 0.1 0.31 0.131 3.5 0.1
1 41 35 10 23 127.0 2092.639 0.0013470124 0.5 0.1 0.31 0.131 3.5 0.1
1 53 63 11 1 90.0 2039.7397 0.0012763457 0.5 0.1 0.31 0.131 3.5 0.1
1 52 63 11 2 90.0 2032.236 0.0009645284 0.5 0.1 0.31 0.131 3.5 0.1
1 51 63 11 3 90.0 2025.3529 0.0009095788 0.5 0.1 0.31 0.131 3.5 0.1
1 50 63 11 4 90.0 2018.0345 0.0013455773 0.5 0.1 0.31 0.131 3.5 0.1
1 49 63 11 5 90.0 2009.3212 0.0014660014 0.5 0.1 0.31 0.131 3.5 0.1
1 48 63 11 6 90.0 2003.7649 0.0013091145 0.5 0.1 0.31 0.131 3.5 0.1
1 47 63 11 7 90.0 1997.577 0.001048511 0.5 0.1 0.31 0.131 3.5 0.1
1 46 63 11 8 90.0 1991.3356 0.0010214377 0.5 0.1 0.31 0.131 3.5 0.1
1 45 63 11 9 90.0 1984.8281 0.0011401854 0.5 0.1 0.31 0.131 3.5 0.1
1 44 63 11 10 90.0 1977.2297 0.0011684684 0.5 0.1 0.31 0.131 3.5 0.1
1 43 63 11 11 90.0 1973.3588 0.000409803 0.5 0.1 0.31 0.131 3.5 0.1
1 42 63 11 12 90.0 1967.5173 0.0006244868 0.5 0.1 0.31 0.131 3.5 0.1
1 42 64 11 13 90.0 1965.1108 0.0008263437 0.5 0.1 0.31 0.131 3.5 0.1
1 42 65 12 1 154.0 1962.9237 0.0016366021 0.5 0.1 0.31 0.131 3.5 0.1
1 42 66 12 2 90.0 1961.2175 0.002162973 0.5 0.1 0.31 0.131 3.5 0.1
1 42 67 12 3 90.0 1960.649 0.0022989411 0.5 0.1 0.31 0.131 3.5 0.1
1 42 68 12 4 90.0 1959.1484 0.0015815861 0.5 0.1 0.31 0.131 3.5 0.1
1 42 69 12 5 90.0 1958.5171 0.00046910974 0.5 0.1 0.31 0.131 3.5 0.1
1 42 70 12 6 109.0 1957.389 0.00040510736 0.5 0.1 0.31 0.131 3.5 0.1
1 43 71 12 7 109.0 1950.0227 0.0009817322 0.5 0.1 0.31 0.131 3.5 0.1
1 43 72 12 8 90.0 1947.0735 0.00052491465 0.5 0.1 0.31 0.131 3.5 0.1
1 43 73 12 9 90.0 1944.0067 0.0004888971 0.5 0.1 0.31 0.131 3.5 0.1
1 43 74 13 1 154.0 1941.0001 0.00062562013 0.5 0.1 0.31 0.131 3.5 0.1
1 43 75 13 2 109.0 1938.4292 0.00086913747 0.5 0.1 0.31 0.131 3.5 0.1
1 44 76 13 3 109.0 1936.3971 0.00047654027 0.5 0.1 0.31 0.131 3.5 0.1
1 44 77 13 4 90.0 1934.803 0.00040612716 0.5 0.1 0.31 0.131 3.5 0.1
1 44 78 14 1 154.0 1933.2701 0.0005013418 0.5 0.1 0.31 0.131 3.5 0.1
1 44 79 14 2 90.0 1931.6802 0.00041261315 0.5 0.1 0.31 0.131 3.5 0.1
1 44 80 14 3 90.0 1929.44 0.00046658996 0.5 0.1 0.31 0.131 3.5 0.1
1 43 80 14 4 109.0 1929.4437 0.0007904151 0.5 0.1 0.31 0.131 3.5 0.1
1 61 76 15 1 90.0 2063.989 0.001513158 0.5 0.1 0.31 0.131 3.5 0.1
1 60 76 15 2 90.0 2053.7388 0.0017158356 0.5 0.1 0.31 0.131 3.5 0.1
1 59 76 15 3 90.0 2042.4988 0.001485755 0.5 0.1 0.31 0.131 3.5 0.1
1 58 76 15 4 90.0 2030.0371 0.0015913638 0.5 0.1 0.31 0.131 3.5 0.1
1 57 76 15 5 109.0 2018.2366 0.0017968677 0.5 0.1 0.31 0.131 3.5 0.1
1 56 75 15 6 109.0 2006.2578 0.001595581 0.5 0.1 0.31 0.131 3.5 0.1
1 55 75 15 7 90.0 1998.5775 0.0010186703 0.5 0.1 0.31 0.131 3.5 0.1
1 54 75 15 8 90.0 1993.4823 0.000818223 0.5 0.1 0.31 0.131 3.5 0.1
1 53 75 15 9 90.0 1987.1268 0.00091824075 0.5 0.1 0.31 0.131 3.5 0.1
1 52 75 15 10 90.0 1979.1189 0.00090228405 0.5 0.1 0.31 0.131 3.5 0.1
1 51 75 15 11 90.0 1972.2534 0.00089096377 0.5 0.1 0.31 0.131 3.5 0.1
1 50 75 15 12 90.0 1964.9811 0.0008318822 0.5 0.1 0.31 0.131 3.5 0.1
1 49 75 15 13 109.0 1958.775 0.0010593655 0.5 0.1 0.31 0.131 3.5 0.1
1 48 76 15 14 109.0 1951.3143 0.0017728192 0.5 0.1 0.31 0.131 3.5 0.1
1 47 76 15 15 109.0 1947.4227 0.0008159526 0.5 0.1 0.31 0.131 3.5 0.1
1 46 77 15 16 109.0 1940.4935 0.00072480616 0.5 0.1 0.31 0.131 3.5 0.1
1 45 77 15 17 109.0 1937.902 0.0004587027 0.5 0.1 0.31 0.131 3.5 0.1
15 0 0 0
1 1 13 0 0 0 0 0 0.04 
3.0 
3.0 
2 1 9 0 0 0 0 0 0.04 
3.0 
3.0 
3 1 4 0 0 0 0 0 0.04 
3.0 
3.0 
4 1 9 0 0 0 0 0 0.04 
3.0 
3.0 
5 1 3 0 0 0 0 0 0.04 
3.0 
3.0 
6 1 4 0 0 0 0 0 0.04 
3.0 
3.0 
7 1 5 0 0 0 0 0 0.04 
3.0 
3.0 
8 1 3 0 0 0 0 0 0.04 
3.0 
3.0 
9 1 12 0 0 0 0 0 0.04 
3.0 
3.0 
10 1 5 0 0 0 0 0 0.04 
3.0 
3.0 
11 1 12 0 0 0 0 0 0.04 
3.0 
3.0 
12 1 13 0 0 0 0 0 0.04 
3.0 
3.0 
13 1 14 0 0 0 0 0 0.04 
3.0 
3.0 
14 1 0 0 0 0 0 0 0.04 
3.0 
3.0 
15 1 14 0 0 0 0 0 0.04 
3.0 
3.0 
-1 0 0 0
