# OC package for  MODFLOW-NWT, generated by Flopy.
HEAD PRINT FORMAT   0
HEAD SAVE UNIT    51
DRAWDOWN PRINT FORMAT   0
COMPACT BUDGET AUX

period 1 step 1 
  save head
  print budget
  save budget

period 2 step 1 
  save head
  print budget
  save budget

period 2 step 11 
  save head
  print budget
  save budget

period 2 step 22 
  save head
  print budget
  save budget

period 2 step 33 
  save head
  print budget
  save budget

period 2 step 43 
  save head
  print budget
  save budget

period 2 step 54 
  save head
  print budget
  save budget

period 2 step 65 
  save head
  print budget
  save budget

period 2 step 76 
  save head
  print budget
  save budget

period 2 step 86 
  save head
  print budget
  save budget

period 2 step 97 
  save head
  print budget
  save budget

period 2 step 108 
  save head
  print budget
  save budget

period 2 step 119 
  save head
  print budget
  save budget

period 2 step 129 
  save head
  print budget
  save budget

period 2 step 140 
  save head
  print budget
  save budget

period 2 step 151 
  save head
  print budget
  save budget

period 2 step 161 
  save head
  print budget
  save budget

period 2 step 172 
  save head
  print budget
  save budget

period 2 step 183 
  save head
  print budget
  save budget

period 2 step 194 
  save head
  print budget
  save budget

period 2 step 204 
  save head
  print budget
  save budget

period 2 step 215 
  save head
  print budget
  save budget

period 2 step 226 
  save head
  print budget
  save budget

period 2 step 237 
  save head
  print budget
  save budget

period 2 step 247 
  save head
  print budget
  save budget

period 2 step 258 
  save head
  print budget
  save budget

period 2 step 269 
  save head
  print budget
  save budget

period 2 step 280 
  save head
  print budget
  save budget

period 2 step 290 
  save head
  print budget
  save budget

period 2 step 301 
  save head
  print budget
  save budget

period 2 step 312 
  save head
  print budget
  save budget

period 2 step 322 
  save head
  print budget
  save budget

period 2 step 333 
  save head
  print budget
  save budget

period 2 step 344 
  save head
  print budget
  save budget

period 2 step 355 
  save head
  print budget
  save budget

period 2 step 365 
  save head
  print budget
  save budget

period 2 step 376 
  save head
  print budget
  save budget

period 2 step 387 
  save head
  print budget
  save budget

period 2 step 398 
  save head
  print budget
  save budget

period 2 step 408 
  save head
  print budget
  save budget

period 2 step 419 
  save head
  print budget
  save budget

period 2 step 430 
  save head
  print budget
  save budget

period 2 step 440 
  save head
  print budget
  save budget

period 2 step 451 
  save head
  print budget
  save budget

period 2 step 462 
  save head
  print budget
  save budget

period 2 step 473 
  save head
  print budget
  save budget

period 2 step 483 
  save head
  print budget
  save budget

period 2 step 494 
  save head
  print budget
  save budget

period 2 step 505 
  save head
  print budget
  save budget

period 2 step 516 
  save head
  print budget
  save budget

period 2 step 526 
  save head
  print budget
  save budget

period 2 step 537 
  save head
  print budget
  save budget

period 2 step 548 
  save head
  print budget
  save budget

period 2 step 559 
  save head
  print budget
  save budget

period 2 step 569 
  save head
  print budget
  save budget

period 2 step 580 
  save head
  print budget
  save budget

period 2 step 591 
  save head
  print budget
  save budget

period 2 step 601 
  save head
  print budget
  save budget

period 2 step 612 
  save head
  print budget
  save budget

period 2 step 623 
  save head
  print budget
  save budget

period 2 step 634 
  save head
  print budget
  save budget

period 2 step 644 
  save head
  print budget
  save budget

period 2 step 655 
  save head
  print budget
  save budget

period 2 step 666 
  save head
  print budget
  save budget

period 2 step 677 
  save head
  print budget
  save budget

period 2 step 687 
  save head
  print budget
  save budget

period 2 step 698 
  save head
  print budget
  save budget

period 2 step 709 
  save head
  print budget
  save budget

period 2 step 720 
  save head
  print budget
  save budget

period 2 step 730 
  save head
  print budget
  save budget

period 2 step 741 
  save head
  print budget
  save budget

period 2 step 752 
  save head
  print budget
  save budget

period 2 step 762 
  save head
  print budget
  save budget

period 2 step 773 
  save head
  print budget
  save budget

period 2 step 784 
  save head
  print budget
  save budget

period 2 step 795 
  save head
  print budget
  save budget

period 2 step 805 
  save head
  print budget
  save budget

period 2 step 816 
  save head
  print budget
  save budget

period 2 step 827 
  save head
  print budget
  save budget

period 2 step 838 
  save head
  print budget
  save budget

period 2 step 848 
  save head
  print budget
  save budget

period 2 step 859 
  save head
  print budget
  save budget

period 2 step 870 
  save head
  print budget
  save budget

period 2 step 880 
  save head
  print budget
  save budget

period 2 step 891 
  save head
  print budget
  save budget

period 2 step 902 
  save head
  print budget
  save budget

period 2 step 913 
  save head
  print budget
  save budget

period 2 step 923 
  save head
  print budget
  save budget

period 2 step 934 
  save head
  print budget
  save budget

period 2 step 945 
  save head
  print budget
  save budget

period 2 step 956 
  save head
  print budget
  save budget

period 2 step 966 
  save head
  print budget
  save budget

period 2 step 977 
  save head
  print budget
  save budget

period 2 step 988 
  save head
  print budget
  save budget

period 2 step 999 
  save head
  print budget
  save budget

period 2 step 1009 
  save head
  print budget
  save budget

period 2 step 1020 
  save head
  print budget
  save budget

period 2 step 1031 
  save head
  print budget
  save budget

period 2 step 1041 
  save head
  print budget
  save budget

period 2 step 1052 
  save head
  print budget
  save budget

period 2 step 1063 
  save head
  print budget
  save budget

period 2 step 1074 
  save head
  print budget
  save budget

period 2 step 1084 
  save head
  print budget
  save budget

period 2 step 1095 
  save head
  print budget
  save budget

period 2 step 1106 
  save head
  print budget
  save budget

period 2 step 1117 
  save head
  print budget
  save budget

period 2 step 1127 
  save head
  print budget
  save budget

period 2 step 1138 
  save head
  print budget
  save budget

period 2 step 1149 
  save head
  print budget
  save budget

period 2 step 1159 
  save head
  print budget
  save budget

period 2 step 1170 
  save head
  print budget
  save budget

period 2 step 1181 
  save head
  print budget
  save budget

period 2 step 1192 
  save head
  print budget
  save budget

period 2 step 1202 
  save head
  print budget
  save budget

period 2 step 1213 
  save head
  print budget
  save budget

period 2 step 1224 
  save head
  print budget
  save budget

period 2 step 1235 
  save head
  print budget
  save budget

period 2 step 1245 
  save head
  print budget
  save budget

period 2 step 1256 
  save head
  print budget
  save budget

period 2 step 1267 
  save head
  print budget
  save budget

period 2 step 1278 
  save head
  print budget
  save budget

period 2 step 1288 
  save head
  print budget
  save budget

period 2 step 1299 
  save head
  print budget
  save budget

period 2 step 1310 
  save head
  print budget
  save budget

period 2 step 1320 
  save head
  print budget
  save budget

period 2 step 1331 
  save head
  print budget
  save budget

period 2 step 1342 
  save head
  print budget
  save budget

period 2 step 1353 
  save head
  print budget
  save budget

period 2 step 1363 
  save head
  print budget
  save budget

period 2 step 1374 
  save head
  print budget
  save budget

period 2 step 1385 
  save head
  print budget
  save budget

period 2 step 1396 
  save head
  print budget
  save budget

period 2 step 1406 
  save head
  print budget
  save budget

period 2 step 1417 
  save head
  print budget
  save budget

period 2 step 1428 
  save head
  print budget
  save budget

period 2 step 1439 
  save head
  print budget
  save budget

period 2 step 1449 
  save head
  print budget
  save budget

period 2 step 1460 
  save head
  print budget
  save budget

period 2 step 1471 
  save head
  print budget
  save budget

period 2 step 1481 
  save head
  print budget
  save budget

period 2 step 1492 
  save head
  print budget
  save budget

period 2 step 1503 
  save head
  print budget
  save budget

period 2 step 1514 
  save head
  print budget
  save budget

period 2 step 1524 
  save head
  print budget
  save budget

period 2 step 1535 
  save head
  print budget
  save budget

period 2 step 1546 
  save head
  print budget
  save budget

period 2 step 1557 
  save head
  print budget
  save budget

period 2 step 1567 
  save head
  print budget
  save budget

period 2 step 1578 
  save head
  print budget
  save budget

period 2 step 1589 
  save head
  print budget
  save budget

period 2 step 1599 
  save head
  print budget
  save budget

period 2 step 1610 
  save head
  print budget
  save budget

period 2 step 1621 
  save head
  print budget
  save budget

period 2 step 1632 
  save head
  print budget
  save budget

period 2 step 1642 
  save head
  print budget
  save budget

period 2 step 1653 
  save head
  print budget
  save budget

period 2 step 1664 
  save head
  print budget
  save budget

period 2 step 1675 
  save head
  print budget
  save budget

period 2 step 1685 
  save head
  print budget
  save budget

period 2 step 1696 
  save head
  print budget
  save budget

period 2 step 1707 
  save head
  print budget
  save budget

period 2 step 1718 
  save head
  print budget
  save budget

period 2 step 1728 
  save head
  print budget
  save budget

period 2 step 1739 
  save head
  print budget
  save budget

period 2 step 1750 
  save head
  print budget
  save budget

period 2 step 1760 
  save head
  print budget
  save budget

period 2 step 1771 
  save head
  print budget
  save budget

period 2 step 1782 
  save head
  print budget
  save budget

period 2 step 1793 
  save head
  print budget
  save budget

period 2 step 1803 
  save head
  print budget
  save budget

period 2 step 1814 
  save head
  print budget
  save budget

period 2 step 1825 
  save head
  print budget
  save budget

period 2 step 1836 
  save head
  print budget
  save budget

period 2 step 1846 
  save head
  print budget
  save budget

period 2 step 1857 
  save head
  print budget
  save budget

period 2 step 1868 
  save head
  print budget
  save budget

period 2 step 1879 
  save head
  print budget
  save budget

period 2 step 1889 
  save head
  print budget
  save budget

period 2 step 1900 
  save head
  print budget
  save budget

period 2 step 1911 
  save head
  print budget
  save budget

period 2 step 1921 
  save head
  print budget
  save budget

period 2 step 1932 
  save head
  print budget
  save budget

period 2 step 1943 
  save head
  print budget
  save budget

period 2 step 1954 
  save head
  print budget
  save budget

period 2 step 1964 
  save head
  print budget
  save budget

period 2 step 1975 
  save head
  print budget
  save budget

period 2 step 1986 
  save head
  print budget
  save budget

period 2 step 1997 
  save head
  print budget
  save budget

period 2 step 2007 
  save head
  print budget
  save budget

period 2 step 2018 
  save head
  print budget
  save budget

period 2 step 2029 
  save head
  print budget
  save budget

period 2 step 2039 
  save head
  print budget
  save budget

period 2 step 2050 
  save head
  print budget
  save budget

period 2 step 2061 
  save head
  print budget
  save budget

period 2 step 2072 
  save head
  print budget
  save budget

period 2 step 2082 
  save head
  print budget
  save budget

period 2 step 2093 
  save head
  print budget
  save budget

period 2 step 2104 
  save head
  print budget
  save budget

period 2 step 2115 
  save head
  print budget
  save budget

period 2 step 2125 
  save head
  print budget
  save budget

period 2 step 2136 
  save head
  print budget
  save budget

period 2 step 2147 
  save head
  print budget
  save budget

period 2 step 2158 
  save head
  print budget
  save budget

period 2 step 2168 
  save head
  print budget
  save budget

period 2 step 2179 
  save head
  print budget
  save budget

period 2 step 2190 
  save head
  print budget
  save budget

period 2 step 2200 
  save head
  print budget
  save budget

period 2 step 2211 
  save head
  print budget
  save budget

period 2 step 2222 
  save head
  print budget
  save budget

period 2 step 2233 
  save head
  print budget
  save budget

period 2 step 2243 
  save head
  print budget
  save budget

period 2 step 2254 
  save head
  print budget
  save budget

period 2 step 2265 
  save head
  print budget
  save budget

period 2 step 2276 
  save head
  print budget
  save budget

period 2 step 2286 
  save head
  print budget
  save budget

period 2 step 2297 
  save head
  print budget
  save budget

period 2 step 2308 
  save head
  print budget
  save budget

period 2 step 2318 
  save head
  print budget
  save budget

period 2 step 2329 
  save head
  print budget
  save budget

period 2 step 2340 
  save head
  print budget
  save budget

period 2 step 2351 
  save head
  print budget
  save budget

period 2 step 2361 
  save head
  print budget
  save budget

period 2 step 2372 
  save head
  print budget
  save budget

period 2 step 2383 
  save head
  print budget
  save budget

period 2 step 2394 
  save head
  print budget
  save budget

period 2 step 2404 
  save head
  print budget
  save budget

period 2 step 2415 
  save head
  print budget
  save budget

period 2 step 2426 
  save head
  print budget
  save budget

period 2 step 2437 
  save head
  print budget
  save budget

period 2 step 2447 
  save head
  print budget
  save budget

period 2 step 2458 
  save head
  print budget
  save budget

period 2 step 2469 
  save head
  print budget
  save budget

period 2 step 2479 
  save head
  print budget
  save budget

period 2 step 2490 
  save head
  print budget
  save budget

period 2 step 2501 
  save head
  print budget
  save budget

period 2 step 2512 
  save head
  print budget
  save budget

period 2 step 2522 
  save head
  print budget
  save budget

period 2 step 2533 
  save head
  print budget
  save budget

period 2 step 2544 
  save head
  print budget
  save budget

period 2 step 2555 
  save head
  print budget
  save budget

period 2 step 2565 
  save head
  print budget
  save budget

period 2 step 2576 
  save head
  print budget
  save budget

period 2 step 2587 
  save head
  print budget
  save budget

period 2 step 2598 
  save head
  print budget
  save budget

period 2 step 2608 
  save head
  print budget
  save budget

period 2 step 2619 
  save head
  print budget
  save budget

period 2 step 2630 
  save head
  print budget
  save budget

period 2 step 2640 
  save head
  print budget
  save budget

period 2 step 2651 
  save head
  print budget
  save budget

period 2 step 2662 
  save head
  print budget
  save budget

period 2 step 2673 
  save head
  print budget
  save budget

period 2 step 2683 
  save head
  print budget
  save budget

period 2 step 2694 
  save head
  print budget
  save budget

period 2 step 2705 
  save head
  print budget
  save budget

period 2 step 2716 
  save head
  print budget
  save budget

period 2 step 2726 
  save head
  print budget
  save budget

period 2 step 2737 
  save head
  print budget
  save budget

period 2 step 2748 
  save head
  print budget
  save budget

period 2 step 2758 
  save head
  print budget
  save budget

period 2 step 2769 
  save head
  print budget
  save budget

period 2 step 2780 
  save head
  print budget
  save budget

period 2 step 2791 
  save head
  print budget
  save budget

period 2 step 2801 
  save head
  print budget
  save budget

period 2 step 2812 
  save head
  print budget
  save budget

period 2 step 2823 
  save head
  print budget
  save budget

period 2 step 2834 
  save head
  print budget
  save budget

period 2 step 2844 
  save head
  print budget
  save budget

period 2 step 2855 
  save head
  print budget
  save budget

period 2 step 2866 
  save head
  print budget
  save budget

period 2 step 2877 
  save head
  print budget
  save budget

period 2 step 2887 
  save head
  print budget
  save budget

period 2 step 2898 
  save head
  print budget
  save budget

period 2 step 2909 
  save head
  print budget
  save budget

period 2 step 2919 
  save head
  print budget
  save budget

period 2 step 2930 
  save head
  print budget
  save budget

period 2 step 2941 
  save head
  print budget
  save budget

period 2 step 2952 
  save head
  print budget
  save budget

period 2 step 2962 
  save head
  print budget
  save budget

period 2 step 2973 
  save head
  print budget
  save budget

period 2 step 2984 
  save head
  print budget
  save budget

period 2 step 2995 
  save head
  print budget
  save budget

period 2 step 3005 
  save head
  print budget
  save budget

period 2 step 3016 
  save head
  print budget
  save budget

period 2 step 3027 
  save head
  print budget
  save budget

period 2 step 3038 
  save head
  print budget
  save budget

period 2 step 3048 
  save head
  print budget
  save budget

period 2 step 3059 
  save head
  print budget
  save budget

period 2 step 3070 
  save head
  print budget
  save budget

period 2 step 3080 
  save head
  print budget
  save budget

period 2 step 3091 
  save head
  print budget
  save budget

period 2 step 3102 
  save head
  print budget
  save budget

period 2 step 3113 
  save head
  print budget
  save budget

period 2 step 3123 
  save head
  print budget
  save budget

period 2 step 3134 
  save head
  print budget
  save budget

period 2 step 3145 
  save head
  print budget
  save budget

period 2 step 3156 
  save head
  print budget
  save budget

period 2 step 3166 
  save head
  print budget
  save budget

period 2 step 3177 
  save head
  print budget
  save budget

period 2 step 3188 
  save head
  print budget
  save budget

period 2 step 3198 
  save head
  print budget
  save budget

period 2 step 3209 
  save head
  print budget
  save budget

period 2 step 3220 
  save head
  print budget
  save budget

period 2 step 3231 
  save head
  print budget
  save budget

period 2 step 3241 
  save head
  print budget
  save budget

period 2 step 3252 
  save head
  print budget
  save budget

period 2 step 3263 
  save head
  print budget
  save budget

period 2 step 3274 
  save head
  print budget
  save budget

period 2 step 3284 
  save head
  print budget
  save budget

period 2 step 3295 
  save head
  print budget
  save budget

period 2 step 3306 
  save head
  print budget
  save budget

period 2 step 3317 
  save head
  print budget
  save budget

period 2 step 3327 
  save head
  print budget
  save budget

period 2 step 3338 
  save head
  print budget
  save budget

period 2 step 3349 
  save head
  print budget
  save budget

period 2 step 3359 
  save head
  print budget
  save budget

period 2 step 3370 
  save head
  print budget
  save budget

period 2 step 3381 
  save head
  print budget
  save budget

period 2 step 3392 
  save head
  print budget
  save budget

period 2 step 3402 
  save head
  print budget
  save budget

period 2 step 3413 
  save head
  print budget
  save budget

period 2 step 3424 
  save head
  print budget
  save budget

period 2 step 3435 
  save head
  print budget
  save budget

period 2 step 3445 
  save head
  print budget
  save budget

period 2 step 3456 
  save head
  print budget
  save budget

period 2 step 3467 
  save head
  print budget
  save budget

period 2 step 3477 
  save head
  print budget
  save budget

period 2 step 3488 
  save head
  print budget
  save budget

period 2 step 3499 
  save head
  print budget
  save budget

period 2 step 3510 
  save head
  print budget
  save budget

period 2 step 3520 
  save head
  print budget
  save budget

period 2 step 3531 
  save head
  print budget
  save budget

period 2 step 3542 
  save head
  print budget
  save budget

period 2 step 3553 
  save head
  print budget
  save budget

period 2 step 3563 
  save head
  print budget
  save budget

period 2 step 3574 
  save head
  print budget
  save budget

period 2 step 3585 
  save head
  print budget
  save budget

period 2 step 3596 
  save head
  print budget
  save budget

period 2 step 3606 
  save head
  print budget
  save budget

period 2 step 3617 
  save head
  print budget
  save budget

period 2 step 3628 
  save head
  print budget
  save budget

period 2 step 3638 
  save head
  print budget
  save budget

period 2 step 3649 
  save head
  print budget
  save budget

period 2 step 3660 
  save head
  print budget
  save budget

period 2 step 3671 
  save head
  print budget
  save budget

period 2 step 3681 
  save head
  print budget
  save budget

period 2 step 3692 
  save head
  print budget
  save budget

period 2 step 3703 
  save head
  print budget
  save budget

period 2 step 3714 
  save head
  print budget
  save budget

period 2 step 3724 
  save head
  print budget
  save budget

period 2 step 3735 
  save head
  print budget
  save budget

period 2 step 3746 
  save head
  print budget
  save budget

period 2 step 3757 
  save head
  print budget
  save budget

period 2 step 3767 
  save head
  print budget
  save budget

period 2 step 3778 
  save head
  print budget
  save budget

period 2 step 3789 
  save head
  print budget
  save budget

period 2 step 3799 
  save head
  print budget
  save budget

period 2 step 3810 
  save head
  print budget
  save budget

period 2 step 3821 
  save head
  print budget
  save budget

period 2 step 3832 
  save head
  print budget
  save budget

period 2 step 3842 
  save head
  print budget
  save budget

period 2 step 3853 
  save head
  print budget
  save budget

period 2 step 3864 
  save head
  print budget
  save budget

period 2 step 3875 
  save head
  print budget
  save budget

period 2 step 3885 
  save head
  print budget
  save budget

period 2 step 3896 
  save head
  print budget
  save budget

period 2 step 3907 
  save head
  print budget
  save budget

period 2 step 3917 
  save head
  print budget
  save budget

period 2 step 3928 
  save head
  print budget
  save budget

period 2 step 3939 
  save head
  print budget
  save budget

period 2 step 3950 
  save head
  print budget
  save budget

period 2 step 3960 
  save head
  print budget
  save budget

period 2 step 3971 
  save head
  print budget
  save budget

period 2 step 3982 
  save head
  print budget
  save budget

period 2 step 3993 
  save head
  print budget
  save budget

period 2 step 4003 
  save head
  print budget
  save budget

period 2 step 4014 
  save head
  print budget
  save budget

period 2 step 4025 
  save head
  print budget
  save budget

period 2 step 4036 
  save head
  print budget
  save budget

period 2 step 4046 
  save head
  print budget
  save budget

period 2 step 4057 
  save head
  print budget
  save budget

period 2 step 4068 
  save head
  print budget
  save budget

period 2 step 4078 
  save head
  print budget
  save budget

period 2 step 4089 
  save head
  print budget
  save budget

period 2 step 4100 
  save head
  print budget
  save budget

period 2 step 4111 
  save head
  print budget
  save budget

period 2 step 4121 
  save head
  print budget
  save budget

period 2 step 4132 
  save head
  print budget
  save budget

period 2 step 4143 
  save head
  print budget
  save budget

period 2 step 4154 
  save head
  print budget
  save budget

period 2 step 4164 
  save head
  print budget
  save budget

period 2 step 4175 
  save head
  print budget
  save budget

period 2 step 4186 
  save head
  print budget
  save budget

period 2 step 4197 
  save head
  print budget
  save budget

period 2 step 4207 
  save head
  print budget
  save budget

period 2 step 4218 
  save head
  print budget
  save budget

period 2 step 4229 
  save head
  print budget
  save budget

period 2 step 4239 
  save head
  print budget
  save budget

period 2 step 4250 
  save head
  print budget
  save budget

period 2 step 4261 
  save head
  print budget
  save budget

period 2 step 4272 
  save head
  print budget
  save budget

period 2 step 4282 
  save head
  print budget
  save budget

period 2 step 4293 
  save head
  print budget
  save budget

period 2 step 4304 
  save head
  print budget
  save budget

period 2 step 4315 
  save head
  print budget
  save budget

period 2 step 4325 
  save head
  print budget
  save budget

period 2 step 4336 
  save head
  print budget
  save budget

period 2 step 4347 
  save head
  print budget
  save budget

period 2 step 4357 
  save head
  print budget
  save budget

period 2 step 4368 
  save head
  print budget
  save budget

period 2 step 4379 
  save head
  print budget
  save budget

period 2 step 4390 
  save head
  print budget
  save budget

period 2 step 4400 
  save head
  print budget
  save budget

period 2 step 4411 
  save head
  print budget
  save budget

period 2 step 4422 
  save head
  print budget
  save budget

period 2 step 4433 
  save head
  print budget
  save budget

period 2 step 4443 
  save head
  print budget
  save budget

period 2 step 4454 
  save head
  print budget
  save budget

period 2 step 4465 
  save head
  print budget
  save budget

period 2 step 4476 
  save head
  print budget
  save budget

period 2 step 4486 
  save head
  print budget
  save budget

period 2 step 4497 
  save head
  print budget
  save budget

period 2 step 4508 
  save head
  print budget
  save budget

period 2 step 4518 
  save head
  print budget
  save budget

period 2 step 4529 
  save head
  print budget
  save budget

period 2 step 4540 
  save head
  print budget
  save budget

period 2 step 4551 
  save head
  print budget
  save budget

period 2 step 4561 
  save head
  print budget
  save budget

period 2 step 4572 
  save head
  print budget
  save budget

period 2 step 4583 
  save head
  print budget
  save budget

period 2 step 4594 
  save head
  print budget
  save budget

period 2 step 4604 
  save head
  print budget
  save budget

period 2 step 4615 
  save head
  print budget
  save budget

period 2 step 4626 
  save head
  print budget
  save budget

period 2 step 4636 
  save head
  print budget
  save budget

period 2 step 4647 
  save head
  print budget
  save budget

period 2 step 4658 
  save head
  print budget
  save budget

period 2 step 4669 
  save head
  print budget
  save budget

period 2 step 4679 
  save head
  print budget
  save budget

period 2 step 4690 
  save head
  print budget
  save budget

period 2 step 4701 
  save head
  print budget
  save budget

period 2 step 4712 
  save head
  print budget
  save budget

period 2 step 4722 
  save head
  print budget
  save budget

period 2 step 4733 
  save head
  print budget
  save budget

period 2 step 4744 
  save head
  print budget
  save budget

period 2 step 4755 
  save head
  print budget
  save budget

period 2 step 4765 
  save head
  print budget
  save budget

period 2 step 4776 
  save head
  print budget
  save budget
