# DIS package for  MODFLOW-NWT, generated by Flopy.
         2        77        84         2         4         2
  0  0
CONSTANT    9.000000E+01                           #delr                          
CONSTANT    9.000000E+01                           #delc                          
INTERNAL               1  (84E15.6) -1 #model_top                     
   0.000000E+00   2.263840E+03   2.254396E+03   2.239065E+03   2.224505E+03   2.210610E+03   2.203909E+03   2.202717E+03   2.202230E+03   2.202230E+03   2.201661E+03   2.201168E+03   2.197048E+03   2.187787E+03   2.172483E+03   2.152559E+03   2.144618E+03   2.141171E+03   2.139172E+03   2.146915E+03   2.147662E+03   2.144643E+03   2.139833E+03   2.140753E+03   2.142642E+03   2.143651E+03   2.143364E+03   2.140921E+03   2.127373E+03   2.109744E+03   2.107604E+03   2.107846E+03   2.108093E+03   2.107240E+03   2.100951E+03   2.104152E+03   2.065669E+03   2.065438E+03   2.084189E+03   2.111692E+03   2.125483E+03   2.128197E+03   2.128784E+03   2.125337E+03   2.121788E+03   2.118545E+03   2.118479E+03   2.118804E+03   2.122577E+03   2.129827E+03   2.136544E+03   2.142463E+03   2.144747E+03   2.140102E+03   2.135818E+03   2.135386E+03   2.128335E+03   2.122278E+03   2.126347E+03   2.124782E+03   2.107811E+03   2.093353E+03   2.088930E+03   2.092558E+03   2.101179E+03   2.105495E+03   2.108989E+03   2.106321E+03   2.098162E+03   2.084139E+03   2.075927E+03   2.068678E+03   2.059398E+03   2.054291E+03   2.047204E+03   2.039752E+03   2.037711E+03   2.038791E+03   2.036586E+03   2.035758E+03   2.040102E+03   2.032988E+03   2.016284E+03   1.996229E+03
   0.000000E+00   2.280184E+03   2.269695E+03   2.252494E+03   2.241024E+03   2.223032E+03   2.207380E+03   2.208828E+03   2.207789E+03   2.207383E+03   2.206206E+03   2.203264E+03   2.198728E+03   2.189061E+03   2.171543E+03   2.153188E+03   2.146653E+03   2.142384E+03   2.141250E+03   2.149104E+03   2.149610E+03   2.146927E+03   2.142971E+03   2.142962E+03   2.145344E+03   2.149332E+03   2.150883E+03   2.145675E+03   2.125948E+03   2.115491E+03   2.114190E+03   2.114071E+03   2.115522E+03   2.114859E+03   2.108762E+03   2.107417E+03   2.076929E+03   2.070920E+03   2.100818E+03   2.128779E+03   2.132930E+03   2.134197E+03   2.131223E+03   2.126545E+03   2.123760E+03   2.120718E+03   2.119056E+03   2.119233E+03   2.121084E+03   2.127433E+03   2.135269E+03   2.143871E+03   2.146586E+03   2.145835E+03   2.145839E+03   2.143324E+03   2.137563E+03   2.136000E+03   2.135309E+03   2.129375E+03   2.115845E+03   2.101185E+03   2.091486E+03   2.093408E+03   2.098238E+03   2.105394E+03   2.110979E+03   2.111830E+03   2.105360E+03   2.092956E+03   2.079565E+03   2.070089E+03   2.064031E+03   2.059699E+03   2.050688E+03   2.044704E+03   2.042689E+03   2.041966E+03   2.040462E+03   2.042578E+03   2.042206E+03   2.031650E+03   2.015195E+03   2.003509E+03
   0.000000E+00   2.295576E+03   2.290381E+03   2.274665E+03   2.264885E+03   2.243941E+03   2.214253E+03   2.215219E+03   2.219388E+03   2.219947E+03   2.214821E+03   2.207268E+03   2.201010E+03   2.190594E+03   2.170379E+03   2.156115E+03   2.150753E+03   2.145702E+03   2.147086E+03   2.150545E+03   2.150974E+03   2.146459E+03   2.144634E+03   2.146383E+03   2.151774E+03   2.160242E+03   2.164732E+03   2.149854E+03   2.134932E+03   2.128080E+03   2.127069E+03   2.125472E+03   2.126745E+03   2.127870E+03   2.119731E+03   2.099908E+03   2.083452E+03   2.078582E+03   2.121627E+03   2.145916E+03   2.141821E+03   2.138369E+03   2.133337E+03   2.129124E+03   2.125646E+03   2.123166E+03   2.121645E+03   2.119338E+03   2.119616E+03   2.124138E+03   2.134524E+03   2.144820E+03   2.151677E+03   2.154343E+03   2.157329E+03   2.154845E+03   2.146175E+03   2.142246E+03   2.138443E+03   2.131560E+03   2.117408E+03   2.105569E+03   2.098996E+03   2.097034E+03   2.099280E+03   2.106122E+03   2.113182E+03   2.119568E+03   2.115210E+03   2.099388E+03   2.082816E+03   2.073986E+03   2.067873E+03   2.061070E+03   2.055270E+03   2.049694E+03   2.047325E+03   2.045794E+03   2.049261E+03   2.052102E+03   2.046365E+03   2.031056E+03   2.019674E+03   2.008359E+03
   0.000000E+00   2.311615E+03   2.312029E+03   2.300476E+03   2.283291E+03   2.264030E+03   2.235323E+03   2.223333E+03   2.228365E+03   2.232854E+03   2.230793E+03   2.217821E+03   2.202704E+03   2.190029E+03   2.175900E+03   2.161632E+03   2.154524E+03   2.151251E+03   2.151312E+03   2.152619E+03   2.151969E+03   2.147417E+03   2.148431E+03   2.155503E+03   2.165008E+03   2.174058E+03   2.168771E+03   2.160615E+03   2.150746E+03   2.142715E+03   2.139549E+03   2.139207E+03   2.140182E+03   2.137881E+03   2.125574E+03   2.103091E+03   2.087509E+03   2.091613E+03   2.130981E+03   2.151440E+03   2.150781E+03   2.143245E+03   2.135000E+03   2.131030E+03   2.127899E+03   2.125589E+03   2.123353E+03   2.120771E+03   2.120136E+03   2.123562E+03   2.133691E+03   2.144977E+03   2.153955E+03   2.160584E+03   2.166022E+03   2.158544E+03   2.144815E+03   2.138881E+03   2.134385E+03   2.127578E+03   2.114993E+03   2.106053E+03   2.102985E+03   2.101031E+03   2.102599E+03   2.108731E+03   2.116358E+03   2.124403E+03   2.121496E+03   2.104592E+03   2.090279E+03   2.081165E+03   2.073364E+03   2.063302E+03   2.061127E+03   2.054044E+03   2.049361E+03   2.048167E+03   2.054840E+03   2.060728E+03   2.050594E+03   2.033266E+03   2.020289E+03   2.008958E+03
   0.000000E+00   2.328538E+03   2.328298E+03   2.320849E+03   2.297978E+03   2.276807E+03   2.251847E+03   2.233370E+03   2.237234E+03   2.247448E+03   2.246535E+03   2.232997E+03   2.218417E+03   2.199347E+03   2.187093E+03   2.172132E+03   2.159391E+03   2.155959E+03   2.155650E+03   2.155220E+03   2.156328E+03   2.156713E+03   2.159335E+03   2.169980E+03   2.181904E+03   2.181106E+03   2.173576E+03   2.159464E+03   2.149116E+03   2.144472E+03   2.147209E+03   2.148061E+03   2.148347E+03   2.143918E+03   2.124586E+03   2.096271E+03   2.092412E+03   2.110629E+03   2.128522E+03   2.149395E+03   2.158280E+03   2.147729E+03   2.136922E+03   2.133057E+03   2.129643E+03   2.126766E+03   2.123761E+03   2.121272E+03   2.120343E+03   2.121208E+03   2.133065E+03   2.146645E+03   2.156532E+03   2.165746E+03   2.170117E+03   2.154875E+03   2.137900E+03   2.131990E+03   2.128394E+03   2.123084E+03   2.113710E+03   2.108884E+03   2.107254E+03   2.104870E+03   2.106908E+03   2.111409E+03   2.119161E+03   2.127171E+03   2.131355E+03   2.120534E+03   2.104065E+03   2.092743E+03   2.081578E+03   2.071201E+03   2.064630E+03   2.058495E+03   2.052543E+03   2.050387E+03   2.054131E+03   2.060133E+03   2.053962E+03   2.040291E+03   2.024992E+03   2.014034E+03
   0.000000E+00   2.343357E+03   2.344308E+03   2.335058E+03   2.312419E+03   2.289600E+03   2.265524E+03   2.246877E+03   2.245066E+03   2.258493E+03   2.259406E+03   2.244589E+03   2.232074E+03   2.216210E+03   2.201847E+03   2.190915E+03   2.172312E+03   2.160678E+03   2.157717E+03   2.157923E+03   2.162864E+03   2.168859E+03   2.175805E+03   2.188313E+03   2.190327E+03   2.182191E+03   2.165235E+03   2.150508E+03   2.145362E+03   2.144026E+03   2.147170E+03   2.149428E+03   2.151595E+03   2.144731E+03   2.121875E+03   2.098833E+03   2.100544E+03   2.114993E+03   2.129196E+03   2.146566E+03   2.162986E+03   2.157226E+03   2.146207E+03   2.134924E+03   2.131100E+03   2.127450E+03   2.123604E+03   2.121260E+03   2.120502E+03   2.120802E+03   2.134473E+03   2.149383E+03   2.159390E+03   2.167788E+03   2.166362E+03   2.147849E+03   2.126917E+03   2.123433E+03   2.122666E+03   2.118982E+03   2.113654E+03   2.111492E+03   2.110304E+03   2.108403E+03   2.108819E+03   2.113061E+03   2.120982E+03   2.128704E+03   2.133907E+03   2.127127E+03   2.113082E+03   2.098949E+03   2.088338E+03   2.078241E+03   2.068351E+03   2.061075E+03   2.053583E+03   2.050202E+03   2.052037E+03   2.057144E+03   2.060885E+03   2.051451E+03   2.037749E+03   2.014533E+03
   0.000000E+00   2.348818E+03   2.347117E+03   2.339759E+03   2.322599E+03   2.299657E+03   2.278587E+03   2.262006E+03   2.254240E+03   2.266408E+03   2.271653E+03   2.257161E+03   2.242598E+03   2.230312E+03   2.213912E+03   2.201533E+03   2.189452E+03   2.172885E+03   2.163860E+03   2.165550E+03   2.174642E+03   2.182743E+03   2.194903E+03   2.195455E+03   2.190754E+03   2.172693E+03   2.154477E+03   2.145228E+03   2.143116E+03   2.142894E+03   2.146040E+03   2.148059E+03   2.147721E+03   2.136837E+03   2.117751E+03   2.103356E+03   2.102472E+03   2.115603E+03   2.132254E+03   2.148943E+03   2.163146E+03   2.163008E+03   2.151988E+03   2.138455E+03   2.132285E+03   2.129106E+03   2.124990E+03   2.122791E+03   2.120645E+03   2.122704E+03   2.136690E+03   2.150226E+03   2.158603E+03   2.163577E+03   2.159768E+03   2.140187E+03   2.122010E+03   2.120945E+03   2.119185E+03   2.117292E+03   2.113519E+03   2.112666E+03   2.113987E+03   2.113463E+03   2.111044E+03   2.113960E+03   2.122007E+03   2.128807E+03   2.130146E+03   2.121094E+03   2.111214E+03   2.099275E+03   2.089482E+03   2.081026E+03   2.070494E+03   2.059676E+03   2.050184E+03   2.046840E+03   2.047693E+03   2.054288E+03   2.058166E+03   2.053495E+03   2.032500E+03   2.006699E+03
   0.000000E+00   2.353101E+03   2.349318E+03   2.342073E+03   2.324879E+03   2.308606E+03   2.290109E+03   2.278167E+03   2.265851E+03   2.271698E+03   2.281980E+03   2.270334E+03   2.252657E+03   2.237110E+03   2.224703E+03   2.210086E+03   2.202667E+03   2.189065E+03   2.173128E+03   2.174888E+03   2.181271E+03   2.189312E+03   2.191797E+03   2.190593E+03   2.178029E+03   2.158644E+03   2.147537E+03   2.143336E+03   2.141369E+03   2.142087E+03   2.142825E+03   2.142185E+03   2.136996E+03   2.124706E+03   2.116045E+03   2.106747E+03   2.110597E+03   2.119056E+03   2.129870E+03   2.145561E+03   2.160684E+03   2.166628E+03   2.156371E+03   2.142767E+03   2.133922E+03   2.132016E+03   2.127638E+03   2.123093E+03   2.122826E+03   2.128185E+03   2.137382E+03   2.146028E+03   2.154370E+03   2.158934E+03   2.153015E+03   2.131426E+03   2.120588E+03   2.119745E+03   2.117830E+03   2.116472E+03   2.114728E+03   2.115366E+03   2.119428E+03   2.119533E+03   2.115071E+03   2.116551E+03   2.122439E+03   2.127533E+03   2.125321E+03   2.118578E+03   2.109100E+03   2.097939E+03   2.091927E+03   2.087457E+03   2.074345E+03   2.060161E+03   2.047311E+03   2.044450E+03   2.041413E+03   2.043992E+03   2.043232E+03   2.031955E+03   2.014349E+03   1.997680E+03
   0.000000E+00   2.356168E+03   2.349705E+03   2.344374E+03   2.329955E+03   2.314709E+03   2.307573E+03   2.300020E+03   2.283406E+03   2.278412E+03   2.284517E+03   2.278917E+03   2.261391E+03   2.244937E+03   2.227888E+03   2.218138E+03   2.208378E+03   2.197483E+03   2.182771E+03   2.180456E+03   2.182242E+03   2.183128E+03   2.182404E+03   2.175198E+03   2.160908E+03   2.144814E+03   2.137481E+03   2.136571E+03   2.139684E+03   2.138757E+03   2.138495E+03   2.136858E+03   2.130731E+03   2.122642E+03   2.112758E+03   2.110467E+03   2.117754E+03   2.124205E+03   2.129472E+03   2.141313E+03   2.155973E+03   2.168437E+03   2.159317E+03   2.149740E+03   2.138634E+03   2.136022E+03   2.131460E+03   2.127061E+03   2.126296E+03   2.129820E+03   2.136996E+03   2.144028E+03   2.150405E+03   2.153889E+03   2.146707E+03   2.126881E+03   2.119406E+03   2.118851E+03   2.117313E+03   2.116080E+03   2.116366E+03   2.120485E+03   2.123602E+03   2.123821E+03   2.120513E+03   2.119294E+03   2.122478E+03   2.126440E+03   2.124473E+03   2.117750E+03   2.107792E+03   2.098141E+03   2.095207E+03   2.087284E+03   2.076732E+03   2.064364E+03   2.054625E+03   2.047180E+03   2.037734E+03   2.032245E+03   2.022432E+03   2.009112E+03   1.996198E+03   1.983630E+03
   0.000000E+00   2.355274E+03   2.347293E+03   2.339290E+03   2.332303E+03   2.322444E+03   2.320051E+03   2.312503E+03   2.298022E+03   2.288589E+03   2.287680E+03   2.282490E+03   2.267793E+03   2.249369E+03   2.235299E+03   2.230420E+03   2.220986E+03   2.207790E+03   2.195721E+03   2.187373E+03   2.184825E+03   2.174866E+03   2.168270E+03   2.158599E+03   2.144353E+03   2.136071E+03   2.131530E+03   2.136176E+03   2.137584E+03   2.136565E+03   2.134543E+03   2.130969E+03   2.122735E+03   2.117155E+03   2.111921E+03   2.112125E+03   2.120373E+03   2.126870E+03   2.133289E+03   2.144053E+03   2.156059E+03   2.169371E+03   2.165126E+03   2.160365E+03   2.147500E+03   2.139776E+03   2.134859E+03   2.130731E+03   2.129280E+03   2.132701E+03   2.137656E+03   2.143475E+03   2.149508E+03   2.151855E+03   2.144729E+03   2.126897E+03   2.120914E+03   2.118741E+03   2.115677E+03   2.114554E+03   2.116990E+03   2.120887E+03   2.123741E+03   2.125397E+03   2.122878E+03   2.120490E+03   2.122493E+03   2.124331E+03   2.125785E+03   2.119528E+03   2.110943E+03   2.106492E+03   2.099735E+03   2.084612E+03   2.072269E+03   2.066767E+03   2.062208E+03   2.062619E+03   2.046980E+03   2.033541E+03   2.021366E+03   2.013925E+03   2.000288E+03   1.991536E+03
   0.000000E+00   2.352898E+03   2.345903E+03   2.339617E+03   2.333620E+03   2.329095E+03   2.326942E+03   2.315853E+03   2.301918E+03   2.292614E+03   2.288592E+03   2.283401E+03   2.274095E+03   2.257699E+03   2.240302E+03   2.239165E+03   2.237332E+03   2.225563E+03   2.208659E+03   2.199196E+03   2.189546E+03   2.169084E+03   2.158338E+03   2.147819E+03   2.136387E+03   2.130300E+03   2.126841E+03   2.130936E+03   2.133553E+03   2.133190E+03   2.129969E+03   2.124494E+03   2.118760E+03   2.113158E+03   2.112810E+03   2.119386E+03   2.124878E+03   2.130023E+03   2.137504E+03   2.145938E+03   2.159059E+03   2.170520E+03   2.167958E+03   2.163044E+03   2.153001E+03   2.143441E+03   2.140689E+03   2.137266E+03   2.132241E+03   2.135163E+03   2.140475E+03   2.146089E+03   2.150488E+03   2.153709E+03   2.148826E+03   2.134497E+03   2.126692E+03   2.117566E+03   2.111915E+03   2.111982E+03   2.115653E+03   2.120067E+03   2.123783E+03   2.126033E+03   2.123109E+03   2.119555E+03   2.118558E+03   2.122657E+03   2.122488E+03   2.120983E+03   2.116503E+03   2.113013E+03   2.103849E+03   2.089820E+03   2.075367E+03   2.071787E+03   2.072326E+03   2.070500E+03   2.059254E+03   2.049226E+03   2.037776E+03   2.026952E+03   2.007554E+03   1.996482E+03
   0.000000E+00   2.350656E+03   2.344808E+03   2.339793E+03   2.336588E+03   2.333457E+03   2.333367E+03   2.320844E+03   2.306713E+03   2.295425E+03   2.288712E+03   2.283715E+03   2.270988E+03   2.258125E+03   2.247600E+03   2.244584E+03   2.245487E+03   2.237142E+03   2.221531E+03   2.206144E+03   2.188101E+03   2.168111E+03   2.151887E+03   2.142615E+03   2.133778E+03   2.127782E+03   2.123077E+03   2.122000E+03   2.122814E+03   2.125781E+03   2.125709E+03   2.121474E+03   2.116905E+03   2.113697E+03   2.119239E+03   2.123427E+03   2.127599E+03   2.131519E+03   2.138964E+03   2.150877E+03   2.163380E+03   2.171131E+03   2.169315E+03   2.165582E+03   2.160094E+03   2.148668E+03   2.147897E+03   2.146389E+03   2.136903E+03   2.138669E+03   2.145372E+03   2.150988E+03   2.155792E+03   2.159411E+03   2.152123E+03   2.142960E+03   2.132354E+03   2.116918E+03   2.109262E+03   2.109302E+03   2.113228E+03   2.119036E+03   2.123785E+03   2.126678E+03   2.123937E+03   2.120756E+03   2.115550E+03   2.112793E+03   2.116061E+03   2.116966E+03   2.117593E+03   2.117104E+03   2.118486E+03   2.106471E+03   2.088783E+03   2.085241E+03   2.083601E+03   2.077597E+03   2.073496E+03   2.067817E+03   2.052330E+03   2.028588E+03   2.011640E+03   2.000970E+03
   0.000000E+00   2.350176E+03   2.345562E+03   2.340923E+03   2.337396E+03   2.335843E+03   2.340777E+03   2.325952E+03   2.311249E+03   2.298902E+03   2.289406E+03   2.284181E+03   2.275471E+03   2.263073E+03   2.255951E+03   2.252463E+03   2.246514E+03   2.238406E+03   2.225477E+03   2.208089E+03   2.190319E+03   2.169699E+03   2.156141E+03   2.143471E+03   2.131945E+03   2.124111E+03   2.122053E+03   2.120876E+03   2.120614E+03   2.119861E+03   2.120884E+03   2.118489E+03   2.114715E+03   2.114315E+03   2.120924E+03   2.126795E+03   2.131960E+03   2.134234E+03   2.141489E+03   2.155226E+03   2.171462E+03   2.175992E+03   2.172503E+03   2.170192E+03   2.164854E+03   2.157153E+03   2.156128E+03   2.149510E+03   2.143438E+03   2.143721E+03   2.147248E+03   2.152252E+03   2.157051E+03   2.157394E+03   2.149200E+03   2.139939E+03   2.128906E+03   2.117736E+03   2.107521E+03   2.106534E+03   2.108651E+03   2.113016E+03   2.120685E+03   2.124364E+03   2.124393E+03   2.121061E+03   2.115069E+03   2.109013E+03   2.108020E+03   2.111570E+03   2.116633E+03   2.121744E+03   2.125821E+03   2.122192E+03   2.114979E+03   2.110516E+03   2.106252E+03   2.090474E+03   2.071324E+03   2.059619E+03   2.044956E+03   2.026443E+03   2.012157E+03   2.002363E+03
   0.000000E+00   2.351537E+03   2.346366E+03   2.341728E+03   2.338815E+03   2.334071E+03   2.333210E+03   2.325051E+03   2.308942E+03   2.299320E+03   2.291971E+03   2.287880E+03   2.277333E+03   2.267298E+03   2.265100E+03   2.256974E+03   2.250051E+03   2.240422E+03   2.226221E+03   2.208287E+03   2.190480E+03   2.174660E+03   2.158711E+03   2.143135E+03   2.128362E+03   2.122109E+03   2.121264E+03   2.120427E+03   2.119760E+03   2.119079E+03   2.118302E+03   2.116169E+03   2.115420E+03   2.117352E+03   2.121560E+03   2.127978E+03   2.134791E+03   2.139482E+03   2.145734E+03   2.155717E+03   2.176603E+03   2.184301E+03   2.181743E+03   2.177602E+03   2.171219E+03   2.167051E+03   2.162904E+03   2.152752E+03   2.148242E+03   2.148244E+03   2.150473E+03   2.151463E+03   2.151146E+03   2.150513E+03   2.145255E+03   2.137981E+03   2.125698E+03   2.116168E+03   2.109299E+03   2.105777E+03   2.106872E+03   2.109210E+03   2.116507E+03   2.118856E+03   2.119482E+03   2.118378E+03   2.114651E+03   2.105390E+03   2.099510E+03   2.108020E+03   2.116543E+03   2.123347E+03   2.128123E+03   2.129469E+03   2.127996E+03   2.125289E+03   2.114964E+03   2.089666E+03   2.065205E+03   2.052736E+03   2.040051E+03   2.025969E+03   2.012669E+03   2.000806E+03
   0.000000E+00   2.351135E+03   2.344722E+03   2.340166E+03   2.337290E+03   2.333195E+03   2.327885E+03   2.320747E+03   2.315604E+03   2.309340E+03   2.298073E+03   2.294213E+03   2.287365E+03   2.276985E+03   2.271209E+03   2.263007E+03   2.255973E+03   2.245421E+03   2.225818E+03   2.211330E+03   2.192294E+03   2.173315E+03   2.154664E+03   2.137098E+03   2.126519E+03   2.122524E+03   2.122400E+03   2.122364E+03   2.121688E+03   2.120130E+03   2.117921E+03   2.116632E+03   2.116369E+03   2.117701E+03   2.121600E+03   2.129004E+03   2.136170E+03   2.142821E+03   2.150281E+03   2.161231E+03   2.175514E+03   2.184155E+03   2.184087E+03   2.184889E+03   2.180653E+03   2.178714E+03   2.168296E+03   2.158695E+03   2.156512E+03   2.155413E+03   2.152113E+03   2.150330E+03   2.147697E+03   2.144720E+03   2.141050E+03   2.137645E+03   2.125972E+03   2.116127E+03   2.109726E+03   2.105382E+03   2.104613E+03   2.103549E+03   2.109304E+03   2.111812E+03   2.111420E+03   2.113358E+03   2.110311E+03   2.104085E+03   2.096816E+03   2.104717E+03   2.113310E+03   2.120307E+03   2.126099E+03   2.130136E+03   2.130126E+03   2.127315E+03   2.115798E+03   2.090725E+03   2.067416E+03   2.053065E+03   2.042646E+03   2.033502E+03   2.016407E+03   2.005994E+03
   0.000000E+00   2.352739E+03   2.344243E+03   2.340827E+03   2.338954E+03   2.336082E+03   2.333106E+03   2.329105E+03   2.327601E+03   2.321261E+03   2.310972E+03   2.305865E+03   2.302266E+03   2.288011E+03   2.278485E+03   2.274121E+03   2.264976E+03   2.246925E+03   2.228078E+03   2.213599E+03   2.186044E+03   2.160679E+03   2.143645E+03   2.130964E+03   2.121818E+03   2.119908E+03   2.120858E+03   2.121639E+03   2.123018E+03   2.122509E+03   2.118365E+03   2.117162E+03   2.117134E+03   2.118057E+03   2.122255E+03   2.130675E+03   2.140534E+03   2.149340E+03   2.156724E+03   2.172373E+03   2.185576E+03   2.186781E+03   2.183660E+03   2.185835E+03   2.185695E+03   2.176901E+03   2.170568E+03   2.164746E+03   2.162392E+03   2.159652E+03   2.155556E+03   2.149872E+03   2.145248E+03   2.141220E+03   2.136395E+03   2.135388E+03   2.129821E+03   2.119432E+03   2.111144E+03   2.107542E+03   2.102902E+03   2.101135E+03   2.101674E+03   2.104495E+03   2.105707E+03   2.107059E+03   2.104759E+03   2.099535E+03   2.092724E+03   2.097896E+03   2.106836E+03   2.115396E+03   2.124435E+03   2.128140E+03   2.127247E+03   2.124276E+03   2.120441E+03   2.106633E+03   2.081287E+03   2.061083E+03   2.050133E+03   2.041800E+03   2.023484E+03   2.012251E+03
   0.000000E+00   2.363478E+03   2.354791E+03   2.344578E+03   2.340880E+03   2.340526E+03   2.340630E+03   2.337468E+03   2.334390E+03   2.330735E+03   2.323706E+03   2.321636E+03   2.316395E+03   2.300686E+03   2.279567E+03   2.260729E+03   2.245378E+03   2.235855E+03   2.221881E+03   2.200312E+03   2.173218E+03   2.143843E+03   2.133250E+03   2.124754E+03   2.118248E+03   2.117906E+03   2.117824E+03   2.118021E+03   2.118561E+03   2.118440E+03   2.117958E+03   2.117871E+03   2.117866E+03   2.118446E+03   2.123914E+03   2.134622E+03   2.150164E+03   2.163523E+03   2.174371E+03   2.183297E+03   2.189928E+03   2.187048E+03   2.181193E+03   2.182499E+03   2.178304E+03   2.168892E+03   2.165115E+03   2.164520E+03   2.163262E+03   2.160310E+03   2.154838E+03   2.148461E+03   2.142801E+03   2.137619E+03   2.133259E+03   2.131010E+03   2.126810E+03   2.120088E+03   2.112608E+03   2.106938E+03   2.101098E+03   2.097945E+03   2.095889E+03   2.097188E+03   2.098789E+03   2.102438E+03   2.099840E+03   2.093913E+03   2.086488E+03   2.088626E+03   2.099269E+03   2.110951E+03   2.122060E+03   2.123034E+03   2.123487E+03   2.120231E+03   2.114610E+03   2.105861E+03   2.095229E+03   2.075064E+03   2.057363E+03   2.046334E+03   2.036087E+03   2.026395E+03
   0.000000E+00   2.381657E+03   2.368204E+03   2.353919E+03   2.347392E+03   2.345581E+03   2.344427E+03   2.343458E+03   2.340730E+03   2.338084E+03   2.329479E+03   2.311217E+03   2.293486E+03   2.269092E+03   2.245839E+03   2.226809E+03   2.218844E+03   2.211743E+03   2.200024E+03   2.177829E+03   2.154890E+03   2.130444E+03   2.118416E+03   2.117889E+03   2.117812E+03   2.117804E+03   2.117804E+03   2.117804E+03   2.117804E+03   2.117840E+03   2.117804E+03   2.117806E+03   2.118396E+03   2.118158E+03   2.129315E+03   2.147531E+03   2.161216E+03   2.173981E+03   2.185847E+03   2.194165E+03   2.192777E+03   2.184275E+03   2.173662E+03   2.168537E+03   2.162624E+03   2.156601E+03   2.155630E+03   2.156620E+03   2.159774E+03   2.158763E+03   2.152779E+03   2.146856E+03   2.141091E+03   2.135939E+03   2.130873E+03   2.127190E+03   2.123234E+03   2.119279E+03   2.114208E+03   2.109026E+03   2.102813E+03   2.095366E+03   2.092155E+03   2.092571E+03   2.094832E+03   2.097293E+03   2.094488E+03   2.086069E+03   2.079688E+03   2.080021E+03   2.088753E+03   2.101872E+03   2.112898E+03   2.116047E+03   2.117720E+03   2.117711E+03   2.111417E+03   2.107468E+03   2.098247E+03   2.078805E+03   2.061906E+03   2.050062E+03   2.042553E+03   2.034703E+03
   0.000000E+00   2.395099E+03   2.382046E+03   2.363711E+03   2.348885E+03   2.342697E+03   2.334253E+03   2.324491E+03   2.321404E+03   2.314637E+03   2.303116E+03   2.281508E+03   2.253605E+03   2.226764E+03   2.201802E+03   2.189207E+03   2.183659E+03   2.179562E+03   2.165098E+03   2.146978E+03   2.119099E+03   2.117936E+03   2.117805E+03   2.117804E+03   2.117804E+03   2.117804E+03   2.117804E+03   2.117804E+03   2.117804E+03   2.117804E+03   2.117804E+03   2.117804E+03   2.117877E+03   2.119093E+03   2.134600E+03   2.154954E+03   2.171878E+03   2.188915E+03   2.197662E+03   2.195871E+03   2.193459E+03   2.183025E+03   2.176162E+03   2.161173E+03   2.151806E+03   2.144111E+03   2.138712E+03   2.143836E+03   2.149241E+03   2.151072E+03   2.148809E+03   2.144241E+03   2.138744E+03   2.133231E+03   2.128035E+03   2.123270E+03   2.119600E+03   2.115270E+03   2.112367E+03   2.109135E+03   2.104380E+03   2.098542E+03   2.087911E+03   2.086451E+03   2.090231E+03   2.092923E+03   2.089693E+03   2.085457E+03   2.075420E+03   2.072681E+03   2.078983E+03   2.088358E+03   2.098783E+03   2.105194E+03   2.111249E+03   2.114047E+03   2.113727E+03   2.112491E+03   2.104324E+03   2.091730E+03   2.069067E+03   2.051186E+03   2.039737E+03   2.031835E+03
   0.000000E+00   2.371526E+03   2.353699E+03   2.338177E+03   2.318125E+03   2.308279E+03   2.296178E+03   2.286249E+03   2.276319E+03   2.260837E+03   2.252507E+03   2.228748E+03   2.207217E+03   2.182481E+03   2.161830E+03   2.152395E+03   2.146630E+03   2.135729E+03   2.118106E+03   2.118109E+03   2.117963E+03   2.117804E+03   2.117804E+03   2.117804E+03   2.117804E+03   2.117804E+03   2.117804E+03   2.117804E+03   2.117804E+03   2.117804E+03   2.117804E+03   2.117804E+03   2.118282E+03   2.127482E+03   2.148045E+03   2.171073E+03   2.189587E+03   2.203198E+03   2.203933E+03   2.201192E+03   2.191646E+03   2.182648E+03   2.172460E+03   2.161910E+03   2.154092E+03   2.149777E+03   2.135107E+03   2.130441E+03   2.135300E+03   2.137543E+03   2.136827E+03   2.138657E+03   2.135335E+03   2.129674E+03   2.124301E+03   2.119216E+03   2.114674E+03   2.110968E+03   2.108698E+03   2.107140E+03   2.104295E+03   2.101029E+03   2.088449E+03   2.083101E+03   2.086890E+03   2.089381E+03   2.087710E+03   2.084209E+03   2.075150E+03   2.069038E+03   2.069511E+03   2.074544E+03   2.085304E+03   2.093521E+03   2.103470E+03   2.109077E+03   2.109843E+03   2.109203E+03   2.103803E+03   2.093206E+03   2.070913E+03   2.052996E+03   2.040051E+03   2.028567E+03
   0.000000E+00   2.334231E+03   2.313932E+03   2.293898E+03   2.276619E+03   2.263569E+03   2.249243E+03   2.237626E+03   2.222850E+03   2.202561E+03   2.194525E+03   2.173078E+03   2.155522E+03   2.140603E+03   2.119817E+03   2.118036E+03   2.118249E+03   2.118029E+03   2.117804E+03   2.117804E+03   2.117804E+03   2.117804E+03   2.117804E+03   2.117804E+03   2.117804E+03   2.117804E+03   2.117804E+03   2.117804E+03   2.117804E+03   2.117804E+03   2.117804E+03   2.117893E+03   2.123880E+03   2.150085E+03   2.175375E+03   2.193918E+03   2.206603E+03   2.208279E+03   2.207370E+03   2.194784E+03   2.183348E+03   2.177016E+03   2.165850E+03   2.157509E+03   2.154197E+03   2.151750E+03   2.145468E+03   2.126908E+03   2.121927E+03   2.115722E+03   2.121412E+03   2.129317E+03   2.128590E+03   2.123369E+03   2.118154E+03   2.112002E+03   2.108923E+03   2.107855E+03   2.106115E+03   2.104582E+03   2.102584E+03   2.099756E+03   2.092885E+03   2.079260E+03   2.077896E+03   2.087097E+03   2.082119E+03   2.075271E+03   2.065918E+03   2.063488E+03   2.059839E+03   2.064414E+03   2.071591E+03   2.081198E+03   2.094999E+03   2.102158E+03   2.104624E+03   2.101315E+03   2.096094E+03   2.088666E+03   2.070182E+03   2.050527E+03   2.037867E+03   2.028691E+03
   0.000000E+00   2.285451E+03   2.271004E+03   2.244980E+03   2.230137E+03   2.217592E+03   2.200888E+03   2.190348E+03   2.174746E+03   2.152896E+03   2.125344E+03   2.118426E+03   2.117885E+03   2.117832E+03   2.117820E+03   2.117804E+03   2.117804E+03   2.117804E+03   2.117804E+03   2.117804E+03   2.117804E+03   2.117804E+03   2.117804E+03   2.117804E+03   2.117804E+03   2.117804E+03   2.117804E+03   2.117804E+03   2.117804E+03   2.117804E+03   2.118452E+03   2.131503E+03   2.153374E+03   2.183061E+03   2.201719E+03   2.213489E+03   2.216137E+03   2.207805E+03   2.203116E+03   2.189405E+03   2.178902E+03   2.171312E+03   2.164155E+03   2.157643E+03   2.154322E+03   2.148989E+03   2.140723E+03   2.131488E+03   2.123492E+03   2.107876E+03   2.100323E+03   2.117757E+03   2.118233E+03   2.115691E+03   2.110511E+03   2.106633E+03   2.103643E+03   2.102655E+03   2.102286E+03   2.102442E+03   2.101013E+03   2.097833E+03   2.091552E+03   2.077412E+03   2.073015E+03   2.075910E+03   2.072931E+03   2.065225E+03   2.059312E+03   2.059156E+03   2.057385E+03   2.057493E+03   2.058916E+03   2.071010E+03   2.082082E+03   2.091809E+03   2.097103E+03   2.095579E+03   2.088502E+03   2.080849E+03   2.069231E+03   2.049117E+03   2.036148E+03   2.028736E+03
   0.000000E+00   2.245361E+03   2.228491E+03   2.208808E+03   2.191552E+03   2.176668E+03   2.162570E+03   2.148753E+03   2.119211E+03   2.117981E+03   2.117979E+03   2.117804E+03   2.117804E+03   2.117804E+03   2.117804E+03   2.117804E+03   2.117804E+03   2.117804E+03   2.117804E+03   2.117804E+03   2.117804E+03   2.117804E+03   2.117804E+03   2.117804E+03   2.117804E+03   2.117804E+03   2.117804E+03   2.117804E+03   2.117858E+03   2.119454E+03   2.136266E+03   2.161084E+03   2.188175E+03   2.207532E+03   2.215300E+03   2.223313E+03   2.214430E+03   2.207955E+03   2.204023E+03   2.189646E+03   2.180173E+03   2.171622E+03   2.168602E+03   2.160769E+03   2.156181E+03   2.150552E+03   2.144860E+03   2.137609E+03   2.129758E+03   2.109641E+03   2.090148E+03   2.103287E+03   2.107799E+03   2.107074E+03   2.102600E+03   2.101474E+03   2.097843E+03   2.097071E+03   2.098017E+03   2.100494E+03   2.099572E+03   2.095896E+03   2.086531E+03   2.078169E+03   2.066681E+03   2.061272E+03   2.062615E+03   2.058463E+03   2.055350E+03   2.056364E+03   2.057001E+03   2.057010E+03   2.057010E+03   2.061066E+03   2.072949E+03   2.086827E+03   2.097341E+03   2.099125E+03   2.087609E+03   2.079371E+03   2.066108E+03   2.048857E+03   2.036248E+03   2.029156E+03