# UPW package for  MODFLOW-NWT, generated by Flopy.
        55    -1E+30         0         0 
         1         1
         0         0
         1         1
         0         0
         0         0
INTERNAL               1  (84E15.6) -1 #hk layer 1                    
   1.110813E-01   1.110813E-01   1.110813E-01   1.110813E-01   1.110813E-01   1.110813E-01   1.110813E-01   1.110813E-01   1.110813E-01   1.110813E-01   1.110813E-01   1.110813E-01   1.110813E-01   1.110813E-01   1.110813E-01   1.110813E-01   1.110813E-01   1.110813E-01   1.110813E-01   1.110813E-01   1.110813E-01   1.110813E-01   1.110813E-01   1.110813E-01   1.110813E-01   1.110813E-01   1.110813E-01   1.110813E-01   1.110813E-01   1.110813E-01   1.110813E-01   1.110813E-01   1.110813E-01   1.110813E-01   1.110813E-01   1.110813E-01   1.110813E-01   1.110813E-01   1.110813E-01   1.110813E-01   1.110813E-01   1.110813E-01   1.110813E-01   1.110813E-01   1.110813E-01   1.110813E-01   1.110813E-01   1.110813E-01   1.110813E-01   1.110813E-01   1.110813E-01   1.110813E-01   1.110813E-01   1.110813E-01   1.110813E-01   1.110813E-01   1.110813E-01   1.110813E-01   1.110813E-01   1.110813E-01   1.110813E-01   1.110813E-01   1.110813E-01   1.110813E-01   1.110813E-01   1.110813E-01   1.110813E-01   1.110813E-01   1.110813E-01   1.110813E-01   1.110813E-01   1.110813E-01   1.110813E-01   1.110813E-01   1.110813E-01   1.110813E-01   1.110813E-01   1.110813E-01   1.110813E-01   1.110813E-01   1.110813E-01   1.110813E-01   1.110813E-01   1.110813E-01
   1.110813E-01   1.110813E-01   1.110813E-01   1.110813E-01   1.110813E-01   1.110813E-01   1.110813E-01   1.110813E-01   1.110813E-01   1.110813E-01   1.110813E-01   1.110813E-01   1.110813E-01   1.110813E-01   1.110813E-01   1.110813E-01   1.110813E-01   1.110813E-01   1.110813E-01   1.110813E-01   1.110813E-01   1.110813E-01   1.110813E-01   1.110813E-01   1.110813E-01   1.110813E-01   1.110813E-01   1.110813E-01   1.110813E-01   1.110813E-01   1.110813E-01   1.110813E-01   1.110813E-01   1.110813E-01   1.110813E-01   1.110813E-01   1.110813E-01   1.110813E-01   1.110813E-01   1.110813E-01   1.110813E-01   1.110813E-01   1.110813E-01   1.110813E-01   1.110813E-01   1.110813E-01   1.110813E-01   1.110813E-01   1.110813E-01   1.110813E-01   1.110813E-01   1.110813E-01   1.110813E-01   1.110813E-01   1.110813E-01   1.110813E-01   1.110813E-01   1.110813E-01   1.110813E-01   1.110813E-01   1.110813E-01   1.110813E-01   1.110813E-01   1.110813E-01   1.110813E-01   1.110813E-01   1.110813E-01   1.110813E-01   1.110813E-01   1.110813E-01   1.110813E-01   1.110813E-01   1.110813E-01   1.110813E-01   1.110813E-01   1.110813E-01   1.110813E-01   1.110813E-01   1.110813E-01   1.110813E-01   1.110813E-01   1.110813E-01   1.110813E-01   1.110813E-01
   1.110813E-01   1.110813E-01   1.110813E-01   1.110813E-01   1.110813E-01   1.110813E-01   1.110813E-01   1.110813E-01   1.110813E-01   1.110813E-01   1.110813E-01   1.110813E-01   1.110813E-01   1.110813E-01   1.110813E-01   1.110813E-01   1.110813E-01   1.110813E-01   1.110813E-01   1.110813E-01   1.110813E-01   1.110813E-01   1.110813E-01   1.110813E-01   1.110813E-01   1.110813E-01   1.110813E-01   1.110813E-01   1.110813E-01   1.110813E-01   1.110813E-01   1.110813E-01   1.110813E-01   1.110813E-01   1.110813E-01   1.110813E-01   1.110813E-01   1.110813E-01   1.110813E-01   1.110813E-01   1.110813E-01   1.110813E-01   1.110813E-01   1.110813E-01   1.110813E-01   1.110813E-01   1.110813E-01   1.110813E-01   1.110813E-01   1.110813E-01   1.110813E-01   1.110813E-01   1.110813E-01   1.110813E-01   1.110813E-01   1.110813E-01   1.110813E-01   1.110813E-01   1.110813E-01   1.110813E-01   1.110813E-01   1.110813E-01   1.110813E-01   1.110813E-01   1.110813E-01   1.110813E-01   1.110813E-01   1.110813E-01   1.110813E-01   1.110813E-01   1.110813E-01   1.110813E-01   1.110813E-01   1.110813E-01   1.110813E-01   1.110813E-01   1.110813E-01   1.110813E-01   1.110813E-01   1.110813E-01   1.110813E-01   1.110813E-01   1.110813E-01   1.110813E-01
   1.110813E-01   1.110813E-01   1.110813E-01   1.110813E-01   1.110813E-01   1.110813E-01   1.110813E-01   1.110813E-01   1.110813E-01   1.110813E-01   1.110813E-01   1.110813E-01   1.110813E-01   1.110813E-01   1.110813E-01   1.110813E-01   1.110813E-01   1.110813E-01   1.110813E-01   1.110813E-01   1.110813E-01   1.110813E-01   1.110813E-01   1.110813E-01   1.110813E-01   1.110813E-01   1.110813E-01   1.110813E-01   1.110813E-01   1.110813E-01   1.110813E-01   1.110813E-01   1.110813E-01   1.110813E-01   1.110813E-01   1.110813E-01   1.110813E-01   1.110813E-01   1.110813E-01   1.110813E-01   1.110813E-01   1.110813E-01   1.110813E-01   1.110813E-01   1.110813E-01   1.110813E-01   1.110813E-01   1.110813E-01   1.110813E-01   1.110813E-01   1.110813E-01   1.110813E-01   1.110813E-01   1.110813E-01   1.110813E-01   9.358213E-02   5.007364E-02   1.110813E-01   1.110813E-01   1.110813E-01   1.110813E-01   1.110813E-01   1.110813E-01   1.110813E-01   1.110813E-01   1.110813E-01   1.110813E-01   1.110813E-01   1.110813E-01   1.110813E-01   1.110813E-01   1.110813E-01   1.110813E-01   1.110813E-01   1.110813E-01   1.110813E-01   1.110813E-01   1.110813E-01   1.110813E-01   1.110813E-01   1.110813E-01   1.110813E-01   1.110813E-01   1.110813E-01
   1.110813E-01   1.110813E-01   1.110813E-01   1.110813E-01   1.110813E-01   1.110813E-01   1.110813E-01   1.110813E-01   1.110813E-01   1.110813E-01   1.110813E-01   1.110813E-01   1.110813E-01   1.110813E-01   1.110813E-01   1.110813E-01   1.110813E-01   1.110813E-01   1.110813E-01   1.110813E-01   1.110813E-01   1.110813E-01   1.110813E-01   1.110813E-01   1.110813E-01   1.110813E-01   1.110813E-01   1.110813E-01   1.110813E-01   1.110813E-01   1.110813E-01   1.110813E-01   1.110813E-01   1.110813E-01   1.110813E-01   1.110813E-01   1.110813E-01   1.110813E-01   1.110813E-01   1.110813E-01   1.110813E-01   1.110813E-01   1.110813E-01   1.110813E-01   1.110813E-01   1.110813E-01   1.110813E-01   1.110813E-01   1.110813E-01   1.110813E-01   1.110813E-01   1.110813E-01   1.110813E-01   1.110813E-01   6.363933E-02   1.006918E-01   6.537074E-02   1.728129E-02   1.110813E-01   1.110813E-01   1.110813E-01   1.110813E-01   1.110813E-01   1.110813E-01   1.110813E-01   1.110813E-01   1.110813E-01   1.110813E-01   1.110813E-01   1.110813E-01   1.110813E-01   1.110813E-01   1.110813E-01   1.110813E-01   1.110813E-01   1.110813E-01   1.110813E-01   1.110813E-01   1.110813E-01   1.110813E-01   1.110813E-01   1.110813E-01   1.110813E-01   1.110813E-01
   1.110813E-01   1.110813E-01   1.110813E-01   1.110813E-01   1.110813E-01   1.110813E-01   1.110813E-01   1.110813E-01   1.110813E-01   1.110813E-01   1.110813E-01   1.110813E-01   1.110813E-01   1.110813E-01   1.110813E-01   1.110813E-01   1.110813E-01   1.110813E-01   1.110813E-01   1.110813E-01   1.110813E-01   1.110813E-01   1.110813E-01   1.110813E-01   1.110813E-01   1.110813E-01   1.110813E-01   1.110813E-01   1.110813E-01   1.110813E-01   1.110813E-01   1.110813E-01   1.110813E-01   1.110813E-01   1.110813E-01   1.110813E-01   1.110813E-01   1.110813E-01   1.110813E-01   1.110813E-01   1.110813E-01   1.110813E-01   1.110813E-01   1.110813E-01   1.110813E-01   1.110813E-01   1.110813E-01   1.110813E-01   1.110813E-01   1.110813E-01   1.110813E-01   1.110813E-01   1.110813E-01   1.110813E-01   6.409072E-02   9.264200E-02   9.441062E-02   5.925854E-02   1.110813E-01   1.110813E-01   1.110813E-01   1.110813E-01   1.110813E-01   1.110813E-01   1.110813E-01   1.110813E-01   1.110813E-01   1.110813E-01   1.110813E-01   1.110813E-01   1.110813E-01   1.110813E-01   1.110813E-01   1.110813E-01   1.110813E-01   1.110813E-01   1.110813E-01   1.110813E-01   1.110813E-01   1.110813E-01   1.110813E-01   1.110813E-01   1.110813E-01   1.110813E-01
   1.110813E-01   1.110813E-01   1.110813E-01   1.110813E-01   1.110813E-01   1.110813E-01   1.110813E-01   1.110813E-01   1.110813E-01   1.110813E-01   1.110813E-01   1.110813E-01   1.110813E-01   1.110813E-01   1.110813E-01   1.110813E-01   1.110813E-01   1.110813E-01   1.110813E-01   1.110813E-01   1.110813E-01   1.110813E-01   1.110813E-01   1.110813E-01   1.110813E-01   1.110813E-01   1.110813E-01   1.110813E-01   1.110813E-01   1.110813E-01   1.110813E-01   1.110813E-01   1.110813E-01   1.110813E-01   1.110813E-01   1.110813E-01   1.110813E-01   1.110813E-01   1.110813E-01   1.110813E-01   1.110813E-01   1.110813E-01   1.110813E-01   1.110813E-01   1.110813E-01   1.110813E-01   1.110813E-01   1.110813E-01   1.110813E-01   1.110813E-01   1.110813E-01   1.110813E-01   1.110813E-01   1.110813E-01   6.606194E-02   8.361211E-02   1.133268E-01   1.106277E-01   1.110813E-01   1.110813E-01   1.110813E-01   1.110813E-01   1.110813E-01   1.110813E-01   1.110813E-01   1.110813E-01   1.110813E-01   1.110813E-01   1.110813E-01   1.110813E-01   1.110813E-01   1.110813E-01   1.110813E-01   1.110813E-01   1.110813E-01   1.110813E-01   1.110813E-01   1.110813E-01   1.110813E-01   1.110813E-01   1.110813E-01   1.110813E-01   1.110813E-01   1.110813E-01
   1.110813E-01   1.110813E-01   1.110813E-01   1.110813E-01   1.110813E-01   1.110813E-01   1.110813E-01   1.110813E-01   1.110813E-01   1.110813E-01   1.110813E-01   1.110813E-01   1.110813E-01   1.110813E-01   1.110813E-01   1.110813E-01   1.110813E-01   1.110813E-01   1.110813E-01   1.110813E-01   1.110813E-01   1.110813E-01   1.110813E-01   1.110813E-01   1.110813E-01   1.110813E-01   1.110813E-01   1.110813E-01   1.110813E-01   1.110813E-01   1.110813E-01   1.110813E-01   1.110813E-01   1.110813E-01   1.110813E-01   1.110813E-01   1.110813E-01   1.110813E-01   1.110813E-01   1.110813E-01   1.110813E-01   1.110813E-01   1.110813E-01   1.110813E-01   1.110813E-01   1.110813E-01   1.110813E-01   1.110813E-01   1.110813E-01   1.110813E-01   1.110813E-01   1.110813E-01   1.110813E-01   1.110813E-01   6.682506E-02   7.458223E-02   1.125463E-01   1.321943E-01   1.211385E-01   1.110813E-01   1.110813E-01   1.110813E-01   1.110813E-01   1.110813E-01   1.110813E-01   1.110813E-01   1.110813E-01   1.110813E-01   1.110813E-01   1.110813E-01   1.110813E-01   1.110813E-01   1.110813E-01   1.110813E-01   1.110813E-01   1.110813E-01   1.110813E-01   1.110813E-01   1.110813E-01   1.110813E-01   1.110813E-01   1.110813E-01   1.110813E-01   1.110813E-01
   1.110813E-01   1.110813E-01   1.110813E-01   1.110813E-01   1.110813E-01   1.110813E-01   1.110813E-01   1.110813E-01   1.110813E-01   1.110813E-01   1.110813E-01   1.110813E-01   1.110813E-01   1.110813E-01   1.110813E-01   1.110813E-01   1.110813E-01   1.110813E-01   1.110813E-01   1.110813E-01   1.110813E-01   1.110813E-01   1.110813E-01   1.110813E-01   1.110813E-01   1.110813E-01   1.110813E-01   1.110813E-01   1.110813E-01   1.110813E-01   1.110813E-01   1.110813E-01   1.110813E-01   1.110813E-01   1.110813E-01   1.110813E-01   1.110813E-01   1.110813E-01   1.110813E-01   1.110813E-01   1.110813E-01   1.110813E-01   1.110813E-01   1.110813E-01   1.110813E-01   1.110813E-01   1.110813E-01   1.110813E-01   1.110813E-01   1.110813E-01   1.110813E-01   1.110813E-01   1.110813E-01   5.568823E-02   6.675781E-02   6.682506E-02   1.063302E-01   1.317011E-01   1.336501E-01   1.033728E-01   1.110813E-01   1.110813E-01   1.110813E-01   1.110813E-01   1.110813E-01   1.110813E-01   1.110813E-01   1.110813E-01   1.110813E-01   1.110813E-01   1.110813E-01   1.110813E-01   1.110813E-01   1.110813E-01   1.110813E-01   1.110813E-01   1.110813E-01   1.110813E-01   1.110813E-01   1.110813E-01   1.110813E-01   1.110813E-01   1.110813E-01   1.110813E-01
   1.110813E-01   1.110813E-01   1.110813E-01   1.110813E-01   1.110813E-01   1.110813E-01   1.110813E-01   1.110813E-01   1.110813E-01   1.110813E-01   1.110813E-01   1.110813E-01   1.110813E-01   1.110813E-01   1.110813E-01   1.110813E-01   1.110813E-01   1.110813E-01   1.110813E-01   1.110813E-01   1.110813E-01   1.110813E-01   1.110813E-01   1.110813E-01   1.110813E-01   1.110813E-01   1.110813E-01   1.110813E-01   1.110813E-01   1.110813E-01   1.110813E-01   1.110813E-01   1.110813E-01   1.110813E-01   1.110813E-01   1.110813E-01   1.110813E-01   1.110813E-01   1.110813E-01   1.110813E-01   1.110813E-01   1.110813E-01   1.110813E-01   1.110813E-01   1.110813E-01   1.110813E-01   1.110813E-01   1.110813E-01   1.110813E-01   1.110813E-01   1.110813E-01   1.110813E-01   1.110813E-01   5.703298E-02   6.589807E-02   6.682506E-02   9.730028E-02   1.262832E-01   1.336501E-01   1.108547E-01   7.858299E-02   6.682506E-02   6.682506E-02   6.682506E-02   6.682506E-02   6.682506E-02   6.682506E-02   6.682506E-02   6.212478E-02   1.110813E-01   1.110813E-01   1.110813E-01   1.110813E-01   1.110813E-01   1.110813E-01   1.110813E-01   1.110813E-01   1.110813E-01   1.110813E-01   1.110813E-01   1.110813E-01   1.110813E-01   1.110813E-01   1.110813E-01
   1.110813E-01   1.110813E-01   1.110813E-01   1.110813E-01   1.110813E-01   1.110813E-01   1.110813E-01   1.110813E-01   1.110813E-01   1.110813E-01   1.110813E-01   1.110813E-01   1.110813E-01   1.110813E-01   1.110813E-01   1.110813E-01   1.110813E-01   1.110813E-01   1.110813E-01   1.110813E-01   1.110813E-01   1.110813E-01   1.110813E-01   1.110813E-01   1.110813E-01   1.110813E-01   1.110813E-01   1.110813E-01   1.110813E-01   1.110813E-01   1.110813E-01   1.110813E-01   1.110813E-01   1.110813E-01   1.110813E-01   1.110813E-01   1.110813E-01   1.110813E-01   1.110813E-01   1.110813E-01   1.110813E-01   1.110813E-01   1.110813E-01   1.110813E-01   1.110813E-01   1.110813E-01   1.110813E-01   1.110813E-01   1.110813E-01   1.110813E-01   1.110813E-01   1.110813E-01   1.110813E-01   6.242809E-02   6.643520E-02   6.682506E-02   8.827040E-02   1.208652E-01   1.336501E-01   1.183366E-01   8.554890E-02   6.682506E-02   6.682506E-02   6.682506E-02   6.682506E-02   6.682506E-02   6.682506E-02   6.682506E-02   6.586221E-02   1.110813E-01   1.110813E-01   1.110813E-01   1.110813E-01   1.110813E-01   1.110813E-01   1.110813E-01   1.110813E-01   1.110813E-01   1.110813E-01   1.110813E-01   1.110813E-01   1.110813E-01   1.110813E-01   1.110813E-01
   1.110813E-01   1.110813E-01   1.110813E-01   1.110813E-01   1.110813E-01   1.110813E-01   1.110813E-01   1.110813E-01   1.110813E-01   1.110813E-01   1.110813E-01   1.110813E-01   1.110813E-01   1.110813E-01   1.110813E-01   1.110813E-01   1.110813E-01   1.110813E-01   1.110813E-01   1.110813E-01   1.110813E-01   1.110813E-01   1.110813E-01   1.110813E-01   1.110813E-01   1.110813E-01   1.110813E-01   1.110813E-01   1.110813E-01   1.110813E-01   1.110813E-01   1.110813E-01   1.110813E-01   1.110813E-01   1.110813E-01   1.110813E-01   1.110813E-01   1.110813E-01   1.110813E-01   1.110813E-01   1.110813E-01   1.110813E-01   1.110813E-01   1.110813E-01   1.110813E-01   1.110813E-01   1.110813E-01   1.110813E-01   1.110813E-01   1.110813E-01   1.110813E-01   1.110813E-01   1.110813E-01   1.110813E-01   6.682506E-02   6.682506E-02   7.924051E-02   1.154473E-01   1.336501E-01   1.258185E-01   9.251481E-02   6.682506E-02   6.682506E-02   6.682506E-02   6.682506E-02   6.682506E-02   6.682506E-02   6.682506E-02   6.682506E-02   6.682506E-02   1.110813E-01   1.110813E-01   1.110813E-01   1.110813E-01   1.110813E-01   1.110813E-01   1.110813E-01   1.110813E-01   1.110813E-01   1.110813E-01   1.110813E-01   1.110813E-01   1.110813E-01   1.110813E-01
   1.110813E-01   1.110813E-01   1.110813E-01   1.110813E-01   1.110813E-01   1.110813E-01   1.110813E-01   1.110813E-01   1.110813E-01   1.110813E-01   1.110813E-01   1.110813E-01   1.110813E-01   1.110813E-01   1.110813E-01   1.110813E-01   1.110813E-01   1.110813E-01   1.110813E-01   1.110813E-01   1.110813E-01   1.110813E-01   1.110813E-01   1.110813E-01   1.110813E-01   1.110813E-01   1.110813E-01   1.110813E-01   1.110813E-01   1.110813E-01   1.110813E-01   1.110813E-01   1.110813E-01   1.110813E-01   1.110813E-01   1.110813E-01   1.110813E-01   1.110813E-01   1.110813E-01   1.110813E-01   1.110813E-01   1.110813E-01   1.110813E-01   1.110813E-01   1.110813E-01   1.110813E-01   1.110813E-01   1.110813E-01   1.110813E-01   1.110813E-01   1.110813E-01   1.110813E-01   1.110813E-01   6.682506E-02   6.682506E-02   6.682506E-02   7.021062E-02   1.100294E-01   1.336501E-01   1.333004E-01   9.951305E-02   6.802354E-02   6.682506E-02   6.682506E-02   6.682506E-02   6.682506E-02   6.682506E-02   6.682506E-02   6.682506E-02   6.682506E-02   6.682506E-02   1.110813E-01   1.110813E-01   1.110813E-01   1.110813E-01   1.110813E-01   1.110813E-01   1.110813E-01   1.110813E-01   1.110813E-01   1.110813E-01   1.110813E-01   1.110813E-01   1.110813E-01
   1.110813E-01   1.110813E-01   1.110813E-01   1.110813E-01   1.110813E-01   1.110813E-01   1.110813E-01   1.110813E-01   1.110813E-01   1.110813E-01   1.110813E-01   1.110813E-01   1.110813E-01   1.110813E-01   1.110813E-01   1.110813E-01   1.110813E-01   1.110813E-01   1.110813E-01   1.110813E-01   1.110813E-01   1.110813E-01   1.110813E-01   1.110813E-01   1.110813E-01   1.110813E-01   1.110813E-01   1.110813E-01   1.110813E-01   1.110813E-01   1.110813E-01   1.110813E-01   1.110813E-01   1.110813E-01   1.110813E-01   1.110813E-01   1.110813E-01   1.110813E-01   1.110813E-01   1.110813E-01   1.110813E-01   1.110813E-01   1.110813E-01   1.110813E-01   1.110813E-01   1.110813E-01   1.110813E-01   1.110813E-01   1.110813E-01   1.110813E-01   1.110813E-01   1.110813E-01   6.682506E-02   6.682506E-02   6.682506E-02   6.682506E-02   6.682506E-02   1.019586E-01   1.290781E-01   1.336501E-01   1.069950E-01   7.498945E-02   6.705490E-02   6.682506E-02   6.682506E-02   6.682506E-02   6.682506E-02   6.682506E-02   6.682506E-02   6.682506E-02   6.682506E-02   6.682506E-02   6.682506E-02   1.110813E-01   1.110813E-01   1.110813E-01   1.110813E-01   1.110813E-01   1.110813E-01   1.110813E-01   1.110813E-01   1.110813E-01   1.110813E-01   1.110813E-01
   1.110813E-01   1.110813E-01   1.110813E-01   1.110813E-01   1.110813E-01   1.110813E-01   1.110813E-01   1.110813E-01   1.110813E-01   1.110813E-01   1.110813E-01   1.110813E-01   1.110813E-01   1.110813E-01   1.110813E-01   1.110813E-01   1.110813E-01   1.110813E-01   1.110813E-01   1.110813E-01   1.110813E-01   1.110813E-01   1.110813E-01   1.110813E-01   1.110813E-01   1.110813E-01   1.110813E-01   1.110813E-01   1.110813E-01   1.110813E-01   1.110813E-01   1.110813E-01   1.110813E-01   1.110813E-01   1.110813E-01   1.110813E-01   1.110813E-01   1.110813E-01   1.110813E-01   1.110813E-01   1.110813E-01   1.110813E-01   5.241909E-02   1.110813E-01   1.110813E-01   1.110813E-01   1.110813E-01   1.110813E-01   1.110813E-01   1.110813E-01   1.110813E-01   6.675417E-02   6.682506E-02   6.682506E-02   6.682506E-02   6.682506E-02   6.682506E-02   9.292868E-02   1.236602E-01   1.336501E-01   1.175099E-01   8.927592E-02   7.247804E-02   6.790421E-02   6.682506E-02   6.682506E-02   6.682506E-02   6.830017E-02   7.036414E-02   7.205261E-02   7.102977E-02   6.689467E-02   6.682506E-02   6.594235E-02   1.110813E-01   1.110813E-01   1.110813E-01   1.110813E-01   1.110813E-01   1.110813E-01   1.110813E-01   1.110813E-01   1.110813E-01   1.110813E-01
   1.110813E-01   1.110813E-01   1.110813E-01   1.110813E-01   1.110813E-01   1.110813E-01   1.110813E-01   1.110813E-01   1.110813E-01   1.110813E-01   1.110813E-01   1.110813E-01   1.110813E-01   1.110813E-01   1.110813E-01   1.110813E-01   1.110813E-01   1.110813E-01   1.110813E-01   1.110813E-01   1.110813E-01   1.110813E-01   1.110813E-01   1.110813E-01   1.110813E-01   1.110813E-01   1.110813E-01   1.110813E-01   1.110813E-01   1.110813E-01   1.110813E-01   1.110813E-01   1.110813E-01   1.110813E-01   1.110813E-01   1.110813E-01   1.110813E-01   1.110813E-01   1.110813E-01   1.110813E-01   1.110813E-01   5.388404E-02   5.662332E-02   5.852858E-02   1.110813E-01   6.182999E-02   6.355622E-02   1.110813E-01   1.110813E-01   1.110813E-01   6.682506E-02   6.682506E-02   6.682506E-02   6.682506E-02   6.682506E-02   6.682506E-02   6.682506E-02   8.389879E-02   1.182423E-01   1.336501E-01   1.302811E-01   1.208348E-01   9.933377E-02   7.942689E-02   7.142889E-02   7.349286E-02   7.555684E-02   8.386741E-02   9.625126E-02   1.076927E-01   1.071997E-01   7.150738E-02   6.682506E-02   6.671742E-02   1.110813E-01   1.110813E-01   1.110813E-01   1.110813E-01   1.110813E-01   1.110813E-01   1.110813E-01   1.110813E-01   1.110813E-01   1.110813E-01
   1.110813E-01   1.110813E-01   1.110813E-01   1.110813E-01   1.110813E-01   1.110813E-01   1.110813E-01   1.110813E-01   1.110813E-01   1.110813E-01   1.110813E-01   1.110813E-01   1.110813E-01   1.110813E-01   1.110813E-01   1.110813E-01   1.110813E-01   1.110813E-01   1.110813E-01   1.110813E-01   1.110813E-01   1.110813E-01   1.110813E-01   1.110813E-01   1.110813E-01   1.110813E-01   1.110813E-01   1.110813E-01   1.110813E-01   1.110813E-01   1.110813E-01   1.110813E-01   1.110813E-01   1.110813E-01   1.110813E-01   1.110813E-01   1.110813E-01   1.110813E-01   1.110813E-01   1.110813E-01   1.110813E-01   5.449875E-02   6.045066E-02   6.617297E-02   6.682506E-02   6.682506E-02   6.682506E-02   6.682506E-02   6.682506E-02   6.682506E-02   6.682506E-02   6.682506E-02   6.682506E-02   6.682506E-02   6.682506E-02   6.682506E-02   6.682506E-02   7.486890E-02   1.128243E-01   1.336501E-01   1.336501E-01   1.331671E-01   1.317991E-01   1.130602E-01   1.026398E-01   1.150236E-01   1.274074E-01   1.336501E-01   1.336501E-01   1.336501E-01   1.310711E-01   1.231234E-01   7.592103E-02   6.682506E-02   6.506033E-02   1.110813E-01   1.110813E-01   1.110813E-01   1.110813E-01   1.110813E-01   1.110813E-01   1.110813E-01   1.110813E-01   1.110813E-01
   1.110813E-01   1.110813E-01   1.110813E-01   1.110813E-01   1.110813E-01   1.110813E-01   1.110813E-01   1.110813E-01   1.110813E-01   1.110813E-01   1.110813E-01   1.110813E-01   1.110813E-01   1.110813E-01   1.110813E-01   1.110813E-01   1.110813E-01   1.110813E-01   1.110813E-01   1.110813E-01   1.110813E-01   1.110813E-01   1.110813E-01   1.110813E-01   1.110813E-01   1.110813E-01   1.110813E-01   1.110813E-01   1.110813E-01   1.110813E-01   1.110813E-01   1.110813E-01   1.110813E-01   1.110813E-01   1.110813E-01   1.110813E-01   1.110813E-01   1.110813E-01   1.110813E-01   1.110813E-01   1.110813E-01   5.439154E-02   5.964196E-02   6.682506E-02   6.659593E-02   6.682506E-02   6.682506E-02   6.682506E-02   6.682506E-02   6.682506E-02   6.682506E-02   6.682506E-02   6.682506E-02   6.682506E-02   6.682506E-02   6.682506E-02   6.682506E-02   6.682506E-02   1.066168E-01   1.318731E-01   1.336501E-01   1.336501E-01   1.336501E-01   1.336501E-01   1.336501E-01   1.336501E-01   1.336501E-01   1.336501E-01   1.336501E-01   1.336501E-01   1.336501E-01   1.267201E-01   8.804688E-02   6.682506E-02   6.599621E-02   5.140655E-02   1.110813E-01   1.110813E-01   1.110813E-01   1.110813E-01   1.110813E-01   1.110813E-01   1.110813E-01   1.110813E-01
   1.110813E-01   1.110813E-01   1.110813E-01   1.110813E-01   1.110813E-01   1.110813E-01   1.110813E-01   1.110813E-01   1.110813E-01   1.110813E-01   1.110813E-01   1.110813E-01   1.110813E-01   1.110813E-01   1.110813E-01   1.110813E-01   1.110813E-01   1.110813E-01   1.110813E-01   1.110813E-01   1.110813E-01   1.110813E-01   1.110813E-01   1.110813E-01   1.110813E-01   1.110813E-01   1.110813E-01   1.110813E-01   1.110813E-01   1.110813E-01   1.110813E-01   1.110813E-01   1.110813E-01   1.110813E-01   1.110813E-01   1.110813E-01   1.110813E-01   1.110813E-01   1.110813E-01   1.110813E-01   5.346005E-02   5.378457E-02   5.669631E-02   6.398533E-02   6.337782E-02   6.613725E-02   6.682506E-02   6.682506E-02   6.682506E-02   6.682506E-02   6.682506E-02   6.682506E-02   6.682506E-02   6.682506E-02   6.682506E-02   6.682506E-02   6.682506E-02   6.682506E-02   9.758696E-02   1.264552E-01   1.336501E-01   1.336501E-01   1.336501E-01   1.336501E-01   1.336501E-01   1.336501E-01   1.336501E-01   1.336501E-01   1.336501E-01   1.336501E-01   1.336501E-01   1.290421E-01   1.001727E-01   6.682506E-02   6.631226E-02   5.693199E-02   2.045455E-01   1.110813E-01   1.110813E-01   1.110813E-01   1.110813E-01   1.110813E-01   1.110813E-01   1.110813E-01
   1.110813E-01   1.110813E-01   1.110813E-01   1.110813E-01   1.110813E-01   1.110813E-01   1.110813E-01   1.110813E-01   1.110813E-01   1.110813E-01   1.110813E-01   1.110813E-01   1.110813E-01   1.110813E-01   1.110813E-01   1.110813E-01   1.110813E-01   1.110813E-01   1.110813E-01   1.110813E-01   1.110813E-01   1.110813E-01   1.110813E-01   1.110813E-01   1.110813E-01   1.110813E-01   1.110813E-01   1.110813E-01   1.110813E-01   1.110813E-01   1.110813E-01   1.110813E-01   1.110813E-01   1.110813E-01   1.110813E-01   1.110813E-01   1.110813E-01   1.110813E-01   1.110813E-01   5.346005E-02   5.346005E-02   5.346005E-02   5.411556E-02   5.484236E-02   5.453259E-02   6.045782E-02   6.540868E-02   6.682506E-02   6.682506E-02   6.682506E-02   6.682506E-02   6.682506E-02   6.682506E-02   6.682506E-02   6.682506E-02   6.682506E-02   6.682506E-02   6.682506E-02   8.855707E-02   1.210372E-01   1.336501E-01   1.336501E-01   1.336501E-01   1.336501E-01   1.336501E-01   1.336501E-01   1.336501E-01   1.336501E-01   1.336501E-01   1.336501E-01   1.336501E-01   1.313641E-01   1.122986E-01   6.682506E-02   6.662185E-02   6.240152E-02   9.014969E-02   1.110813E-01   1.110813E-01   1.110813E-01   1.110813E-01   1.110813E-01   1.110813E-01   1.110813E-01
   1.110813E-01   1.110813E-01   1.110813E-01   1.110813E-01   1.110813E-01   1.110813E-01   1.110813E-01   1.110813E-01   1.110813E-01   1.110813E-01   1.110813E-01   1.110813E-01   1.110813E-01   1.110813E-01   1.110813E-01   1.110813E-01   1.110813E-01   1.110813E-01   1.110813E-01   1.110813E-01   1.110813E-01   1.110813E-01   1.110813E-01   1.110813E-01   1.110813E-01   1.110813E-01   1.110813E-01   1.110813E-01   1.110813E-01   1.110813E-01   1.110813E-01   1.110813E-01   1.110813E-01   1.110813E-01   1.110813E-01   1.110813E-01   1.110813E-01   1.110813E-01   5.346005E-02   5.346005E-02   5.346005E-02   5.346005E-02   5.346005E-02   5.346005E-02   5.346005E-02   5.418988E-02   6.180970E-02   6.682506E-02   6.682506E-02   6.682506E-02   6.682506E-02   6.682506E-02   6.682506E-02   6.682506E-02   6.682506E-02   6.682506E-02   6.682506E-02   6.682506E-02   7.952718E-02   1.156193E-01   1.336501E-01   1.336501E-01   1.336501E-01   1.336501E-01   1.336501E-01   1.336501E-01   1.336501E-01   1.336501E-01   1.336501E-01   1.336501E-01   1.336501E-01   1.336501E-01   1.232003E-01   6.966563E-02   6.682506E-02   6.553335E-02   4.317134E-02   1.110813E-01   1.110813E-01   1.110813E-01   1.110813E-01   1.110813E-01   1.110813E-01   1.110813E-01
   1.110813E-01   1.110813E-01   1.110813E-01   1.110813E-01   1.110813E-01   1.110813E-01   1.110813E-01   1.110813E-01   1.110813E-01   1.110813E-01   1.110813E-01   1.110813E-01   1.110813E-01   1.110813E-01   1.110813E-01   1.110813E-01   1.110813E-01   1.110813E-01   1.110813E-01   1.110813E-01   1.110813E-01   1.110813E-01   1.110813E-01   1.110813E-01   1.110813E-01   1.110813E-01   1.110813E-01   1.110813E-01   1.110813E-01   1.110813E-01   1.110813E-01   1.110813E-01   1.110813E-01   1.110813E-01   1.110813E-01   1.110813E-01   4.707976E-02   5.299003E-02   5.346005E-02   5.346005E-02   5.346005E-02   5.346005E-02   5.346005E-02   5.346005E-02   5.346005E-02   5.393188E-02   5.917813E-02   6.682506E-02   6.682506E-02   6.682506E-02   6.682506E-02   6.682506E-02   6.682506E-02   6.682506E-02   6.682506E-02   6.682506E-02   6.682506E-02   6.682506E-02   7.035744E-02   1.008471E-01   1.225924E-01   1.336501E-01   1.336501E-01   1.336501E-01   1.336501E-01   1.336501E-01   1.336501E-01   1.336501E-01   1.336501E-01   1.336501E-01   1.336501E-01   1.336501E-01   1.231997E-01   7.867651E-02   6.682506E-02   6.584296E-02   4.864087E-02   1.110813E-01   1.110813E-01   1.110813E-01   1.110813E-01   1.110813E-01   1.110813E-01   1.110813E-01
   1.110813E-01   1.110813E-01   1.110813E-01   1.110813E-01   1.110813E-01   1.110813E-01   1.110813E-01   1.110813E-01   1.110813E-01   1.110813E-01   1.110813E-01   1.110813E-01   1.110813E-01   1.110813E-01   1.110813E-01   1.110813E-01   1.110813E-01   1.110813E-01   1.110813E-01   1.110813E-01   1.110813E-01   1.110813E-01   1.110813E-01   1.110813E-01   1.110813E-01   1.110813E-01   1.110813E-01   1.110813E-01   1.110813E-01   1.110813E-01   1.110813E-01   1.110813E-01   1.110813E-01   1.110813E-01   1.110813E-01   3.078310E-02   3.951830E-02   4.795253E-02   5.346005E-02   5.346005E-02   5.346005E-02   5.346005E-02   5.346005E-02   5.346005E-02   5.346005E-02   5.367388E-02   5.654657E-02   6.682506E-02   6.682506E-02   6.682506E-02   6.682506E-02   6.682506E-02   6.682506E-02   6.682506E-02   6.682506E-02   6.682506E-02   6.682506E-02   6.682506E-02   6.682506E-02   6.998938E-02   8.901587E-02   1.107722E-01   1.287630E-01   1.303183E-01   1.313427E-01   1.336501E-01   1.336501E-01   1.336501E-01   1.336501E-01   1.336501E-01   1.336501E-01   1.291786E-01   1.001770E-01   7.227410E-02   6.682506E-02   6.567913E-02   4.237514E-02   1.110813E-01   1.110813E-01   1.110813E-01   1.110813E-01   1.110813E-01   1.110813E-01   1.110813E-01