# OC package for  MODFLOW-NWT, generated by Flopy.
HEAD PRINT FORMAT   0
HEAD SAVE UNIT    51
DRAWDOWN PRINT FORMAT   0
COMPACT BUDGET AUX

period 1 step 1 
  SAVE HEAD
  PRINT BUDGET
  SAVE BUDGET

period 2 step 1 
  SAVE HEAD
  PRINT BUDGET
  SAVE BUDGET

period 2 step 11 
  SAVE HEAD
  PRINT BUDGET
  SAVE BUDGET

period 2 step 22 
  SAVE HEAD
  PRINT BUDGET
  SAVE BUDGET

period 2 step 33 
  SAVE HEAD
  PRINT BUDGET
  SAVE BUDGET

period 2 step 43 
  SAVE HEAD
  PRINT BUDGET
  SAVE BUDGET

period 2 step 54 
  SAVE HEAD
  PRINT BUDGET
  SAVE BUDGET

period 2 step 65 
  SAVE HEAD
  PRINT BUDGET
  SAVE BUDGET

period 2 step 76 
  SAVE HEAD
  PRINT BUDGET
  SAVE BUDGET

period 2 step 86 
  SAVE HEAD
  PRINT BUDGET
  SAVE BUDGET

period 2 step 97 
  SAVE HEAD
  PRINT BUDGET
  SAVE BUDGET

period 2 step 108 
  SAVE HEAD
  PRINT BUDGET
  SAVE BUDGET

period 2 step 119 
  SAVE HEAD
  PRINT BUDGET
  SAVE BUDGET

period 2 step 129 
  SAVE HEAD
  PRINT BUDGET
  SAVE BUDGET

period 2 step 140 
  SAVE HEAD
  PRINT BUDGET
  SAVE BUDGET

period 2 step 151 
  SAVE HEAD
  PRINT BUDGET
  SAVE BUDGET

period 2 step 161 
  SAVE HEAD
  PRINT BUDGET
  SAVE BUDGET

period 2 step 172 
  SAVE HEAD
  PRINT BUDGET
  SAVE BUDGET

period 2 step 183 
  SAVE HEAD
  PRINT BUDGET
  SAVE BUDGET

period 2 step 194 
  SAVE HEAD
  PRINT BUDGET
  SAVE BUDGET

period 2 step 204 
  SAVE HEAD
  PRINT BUDGET
  SAVE BUDGET

period 2 step 215 
  SAVE HEAD
  PRINT BUDGET
  SAVE BUDGET

period 2 step 226 
  SAVE HEAD
  PRINT BUDGET
  SAVE BUDGET

period 2 step 237 
  SAVE HEAD
  PRINT BUDGET
  SAVE BUDGET

period 2 step 247 
  SAVE HEAD
  PRINT BUDGET
  SAVE BUDGET

period 2 step 258 
  SAVE HEAD
  PRINT BUDGET
  SAVE BUDGET

period 2 step 269 
  SAVE HEAD
  PRINT BUDGET
  SAVE BUDGET

period 2 step 280 
  SAVE HEAD
  PRINT BUDGET
  SAVE BUDGET

period 2 step 290 
  SAVE HEAD
  PRINT BUDGET
  SAVE BUDGET

period 2 step 301 
  SAVE HEAD
  PRINT BUDGET
  SAVE BUDGET

period 2 step 312 
  SAVE HEAD
  PRINT BUDGET
  SAVE BUDGET

period 2 step 322 
  SAVE HEAD
  PRINT BUDGET
  SAVE BUDGET

period 2 step 333 
  SAVE HEAD
  PRINT BUDGET
  SAVE BUDGET

period 2 step 344 
  SAVE HEAD
  PRINT BUDGET
  SAVE BUDGET

period 2 step 355 
  SAVE HEAD
  PRINT BUDGET
  SAVE BUDGET

period 2 step 365 
  SAVE HEAD
  PRINT BUDGET
  SAVE BUDGET

period 2 step 376 
  SAVE HEAD
  PRINT BUDGET
  SAVE BUDGET

period 2 step 387 
  SAVE HEAD
  PRINT BUDGET
  SAVE BUDGET

period 2 step 398 
  SAVE HEAD
  PRINT BUDGET
  SAVE BUDGET

period 2 step 408 
  SAVE HEAD
  PRINT BUDGET
  SAVE BUDGET

period 2 step 419 
  SAVE HEAD
  PRINT BUDGET
  SAVE BUDGET

period 2 step 430 
  SAVE HEAD
  PRINT BUDGET
  SAVE BUDGET

period 2 step 440 
  SAVE HEAD
  PRINT BUDGET
  SAVE BUDGET

period 2 step 451 
  SAVE HEAD
  PRINT BUDGET
  SAVE BUDGET

period 2 step 462 
  SAVE HEAD
  PRINT BUDGET
  SAVE BUDGET

period 2 step 473 
  SAVE HEAD
  PRINT BUDGET
  SAVE BUDGET

period 2 step 483 
  SAVE HEAD
  PRINT BUDGET
  SAVE BUDGET

period 2 step 494 
  SAVE HEAD
  PRINT BUDGET
  SAVE BUDGET

period 2 step 505 
  SAVE HEAD
  PRINT BUDGET
  SAVE BUDGET

period 2 step 516 
  SAVE HEAD
  PRINT BUDGET
  SAVE BUDGET

period 2 step 526 
  SAVE HEAD
  PRINT BUDGET
  SAVE BUDGET

period 2 step 537 
  SAVE HEAD
  PRINT BUDGET
  SAVE BUDGET

period 2 step 548 
  SAVE HEAD
  PRINT BUDGET
  SAVE BUDGET

period 2 step 559 
  SAVE HEAD
  PRINT BUDGET
  SAVE BUDGET

period 2 step 569 
  SAVE HEAD
  PRINT BUDGET
  SAVE BUDGET

period 2 step 580 
  SAVE HEAD
  PRINT BUDGET
  SAVE BUDGET

period 2 step 591 
  SAVE HEAD
  PRINT BUDGET
  SAVE BUDGET

period 2 step 601 
  SAVE HEAD
  PRINT BUDGET
  SAVE BUDGET

period 2 step 612 
  SAVE HEAD
  PRINT BUDGET
  SAVE BUDGET

period 2 step 623 
  SAVE HEAD
  PRINT BUDGET
  SAVE BUDGET

period 2 step 634 
  SAVE HEAD
  PRINT BUDGET
  SAVE BUDGET

period 2 step 644 
  SAVE HEAD
  PRINT BUDGET
  SAVE BUDGET

period 2 step 655 
  SAVE HEAD
  PRINT BUDGET
  SAVE BUDGET

period 2 step 666 
  SAVE HEAD
  PRINT BUDGET
  SAVE BUDGET

period 2 step 677 
  SAVE HEAD
  PRINT BUDGET
  SAVE BUDGET

period 2 step 687 
  SAVE HEAD
  PRINT BUDGET
  SAVE BUDGET

period 2 step 698 
  SAVE HEAD
  PRINT BUDGET
  SAVE BUDGET

period 2 step 709 
  SAVE HEAD
  PRINT BUDGET
  SAVE BUDGET

period 2 step 720 
  SAVE HEAD
  PRINT BUDGET
  SAVE BUDGET

period 2 step 730 
  SAVE HEAD
  PRINT BUDGET
  SAVE BUDGET

period 2 step 741 
  SAVE HEAD
  PRINT BUDGET
  SAVE BUDGET

period 2 step 752 
  SAVE HEAD
  PRINT BUDGET
  SAVE BUDGET

period 2 step 762 
  SAVE HEAD
  PRINT BUDGET
  SAVE BUDGET

period 2 step 773 
  SAVE HEAD
  PRINT BUDGET
  SAVE BUDGET

period 2 step 784 
  SAVE HEAD
  PRINT BUDGET
  SAVE BUDGET

period 2 step 795 
  SAVE HEAD
  PRINT BUDGET
  SAVE BUDGET

period 2 step 805 
  SAVE HEAD
  PRINT BUDGET
  SAVE BUDGET

period 2 step 816 
  SAVE HEAD
  PRINT BUDGET
  SAVE BUDGET

period 2 step 827 
  SAVE HEAD
  PRINT BUDGET
  SAVE BUDGET

period 2 step 838 
  SAVE HEAD
  PRINT BUDGET
  SAVE BUDGET

period 2 step 848 
  SAVE HEAD
  PRINT BUDGET
  SAVE BUDGET

period 2 step 859 
  SAVE HEAD
  PRINT BUDGET
  SAVE BUDGET

period 2 step 870 
  SAVE HEAD
  PRINT BUDGET
  SAVE BUDGET

period 2 step 880 
  SAVE HEAD
  PRINT BUDGET
  SAVE BUDGET

period 2 step 891 
  SAVE HEAD
  PRINT BUDGET
  SAVE BUDGET

period 2 step 902 
  SAVE HEAD
  PRINT BUDGET
  SAVE BUDGET

period 2 step 913 
  SAVE HEAD
  PRINT BUDGET
  SAVE BUDGET

period 2 step 923 
  SAVE HEAD
  PRINT BUDGET
  SAVE BUDGET

period 2 step 934 
  SAVE HEAD
  PRINT BUDGET
  SAVE BUDGET

period 2 step 945 
  SAVE HEAD
  PRINT BUDGET
  SAVE BUDGET

period 2 step 956 
  SAVE HEAD
  PRINT BUDGET
  SAVE BUDGET

period 2 step 966 
  SAVE HEAD
  PRINT BUDGET
  SAVE BUDGET

period 2 step 977 
  SAVE HEAD
  PRINT BUDGET
  SAVE BUDGET

period 2 step 988 
  SAVE HEAD
  PRINT BUDGET
  SAVE BUDGET

period 2 step 999 
  SAVE HEAD
  PRINT BUDGET
  SAVE BUDGET

period 2 step 1009 
  SAVE HEAD
  PRINT BUDGET
  SAVE BUDGET

period 2 step 1020 
  SAVE HEAD
  PRINT BUDGET
  SAVE BUDGET

period 2 step 1031 
  SAVE HEAD
  PRINT BUDGET
  SAVE BUDGET

period 2 step 1041 
  SAVE HEAD
  PRINT BUDGET
  SAVE BUDGET

period 2 step 1052 
  SAVE HEAD
  PRINT BUDGET
  SAVE BUDGET

period 2 step 1063 
  SAVE HEAD
  PRINT BUDGET
  SAVE BUDGET

period 2 step 1074 
  SAVE HEAD
  PRINT BUDGET
  SAVE BUDGET

period 2 step 1084 
  SAVE HEAD
  PRINT BUDGET
  SAVE BUDGET

period 2 step 1095 
  SAVE HEAD
  PRINT BUDGET
  SAVE BUDGET

period 2 step 1106 
  SAVE HEAD
  PRINT BUDGET
  SAVE BUDGET

period 2 step 1117 
  SAVE HEAD
  PRINT BUDGET
  SAVE BUDGET

period 2 step 1127 
  SAVE HEAD
  PRINT BUDGET
  SAVE BUDGET

period 2 step 1138 
  SAVE HEAD
  PRINT BUDGET
  SAVE BUDGET

period 2 step 1149 
  SAVE HEAD
  PRINT BUDGET
  SAVE BUDGET

period 2 step 1159 
  SAVE HEAD
  PRINT BUDGET
  SAVE BUDGET

period 2 step 1170 
  SAVE HEAD
  PRINT BUDGET
  SAVE BUDGET

period 2 step 1181 
  SAVE HEAD
  PRINT BUDGET
  SAVE BUDGET

period 2 step 1192 
  SAVE HEAD
  PRINT BUDGET
  SAVE BUDGET

period 2 step 1202 
  SAVE HEAD
  PRINT BUDGET
  SAVE BUDGET

period 2 step 1213 
  SAVE HEAD
  PRINT BUDGET
  SAVE BUDGET

period 2 step 1224 
  SAVE HEAD
  PRINT BUDGET
  SAVE BUDGET

period 2 step 1235 
  SAVE HEAD
  PRINT BUDGET
  SAVE BUDGET

period 2 step 1245 
  SAVE HEAD
  PRINT BUDGET
  SAVE BUDGET

period 2 step 1256 
  SAVE HEAD
  PRINT BUDGET
  SAVE BUDGET

period 2 step 1267 
  SAVE HEAD
  PRINT BUDGET
  SAVE BUDGET

period 2 step 1278 
  SAVE HEAD
  PRINT BUDGET
  SAVE BUDGET

period 2 step 1288 
  SAVE HEAD
  PRINT BUDGET
  SAVE BUDGET

period 2 step 1299 
  SAVE HEAD
  PRINT BUDGET
  SAVE BUDGET

period 2 step 1310 
  SAVE HEAD
  PRINT BUDGET
  SAVE BUDGET

period 2 step 1320 
  SAVE HEAD
  PRINT BUDGET
  SAVE BUDGET

period 2 step 1331 
  SAVE HEAD
  PRINT BUDGET
  SAVE BUDGET

period 2 step 1342 
  SAVE HEAD
  PRINT BUDGET
  SAVE BUDGET

period 2 step 1353 
  SAVE HEAD
  PRINT BUDGET
  SAVE BUDGET

period 2 step 1363 
  SAVE HEAD
  PRINT BUDGET
  SAVE BUDGET

period 2 step 1374 
  SAVE HEAD
  PRINT BUDGET
  SAVE BUDGET

period 2 step 1385 
  SAVE HEAD
  PRINT BUDGET
  SAVE BUDGET

period 2 step 1396 
  SAVE HEAD
  PRINT BUDGET
  SAVE BUDGET

period 2 step 1406 
  SAVE HEAD
  PRINT BUDGET
  SAVE BUDGET

period 2 step 1417 
  SAVE HEAD
  PRINT BUDGET
  SAVE BUDGET

period 2 step 1428 
  SAVE HEAD
  PRINT BUDGET
  SAVE BUDGET

period 2 step 1439 
  SAVE HEAD
  PRINT BUDGET
  SAVE BUDGET

period 2 step 1449 
  SAVE HEAD
  PRINT BUDGET
  SAVE BUDGET

period 2 step 1460 
  SAVE HEAD
  PRINT BUDGET
  SAVE BUDGET

period 2 step 1471 
  SAVE HEAD
  PRINT BUDGET
  SAVE BUDGET

period 2 step 1481 
  SAVE HEAD
  PRINT BUDGET
  SAVE BUDGET

period 2 step 1492 
  SAVE HEAD
  PRINT BUDGET
  SAVE BUDGET

period 2 step 1503 
  SAVE HEAD
  PRINT BUDGET
  SAVE BUDGET

period 2 step 1514 
  SAVE HEAD
  PRINT BUDGET
  SAVE BUDGET

period 2 step 1524 
  SAVE HEAD
  PRINT BUDGET
  SAVE BUDGET

period 2 step 1535 
  SAVE HEAD
  PRINT BUDGET
  SAVE BUDGET

period 2 step 1546 
  SAVE HEAD
  PRINT BUDGET
  SAVE BUDGET

period 2 step 1557 
  SAVE HEAD
  PRINT BUDGET
  SAVE BUDGET

period 2 step 1567 
  SAVE HEAD
  PRINT BUDGET
  SAVE BUDGET

period 2 step 1578 
  SAVE HEAD
  PRINT BUDGET
  SAVE BUDGET

period 2 step 1589 
  SAVE HEAD
  PRINT BUDGET
  SAVE BUDGET

period 2 step 1599 
  SAVE HEAD
  PRINT BUDGET
  SAVE BUDGET

period 2 step 1610 
  SAVE HEAD
  PRINT BUDGET
  SAVE BUDGET

period 2 step 1621 
  SAVE HEAD
  PRINT BUDGET
  SAVE BUDGET

period 2 step 1632 
  SAVE HEAD
  PRINT BUDGET
  SAVE BUDGET

period 2 step 1642 
  SAVE HEAD
  PRINT BUDGET
  SAVE BUDGET

period 2 step 1653 
  SAVE HEAD
  PRINT BUDGET
  SAVE BUDGET

period 2 step 1664 
  SAVE HEAD
  PRINT BUDGET
  SAVE BUDGET

period 2 step 1675 
  SAVE HEAD
  PRINT BUDGET
  SAVE BUDGET

period 2 step 1685 
  SAVE HEAD
  PRINT BUDGET
  SAVE BUDGET

period 2 step 1696 
  SAVE HEAD
  PRINT BUDGET
  SAVE BUDGET

period 2 step 1707 
  SAVE HEAD
  PRINT BUDGET
  SAVE BUDGET

period 2 step 1718 
  SAVE HEAD
  PRINT BUDGET
  SAVE BUDGET

period 2 step 1728 
  SAVE HEAD
  PRINT BUDGET
  SAVE BUDGET

period 2 step 1739 
  SAVE HEAD
  PRINT BUDGET
  SAVE BUDGET

period 2 step 1750 
  SAVE HEAD
  PRINT BUDGET
  SAVE BUDGET

period 2 step 1760 
  SAVE HEAD
  PRINT BUDGET
  SAVE BUDGET

period 2 step 1771 
  SAVE HEAD
  PRINT BUDGET
  SAVE BUDGET

period 2 step 1782 
  SAVE HEAD
  PRINT BUDGET
  SAVE BUDGET

period 2 step 1793 
  SAVE HEAD
  PRINT BUDGET
  SAVE BUDGET

period 2 step 1803 
  SAVE HEAD
  PRINT BUDGET
  SAVE BUDGET

period 2 step 1814 
  SAVE HEAD
  PRINT BUDGET
  SAVE BUDGET

period 2 step 1825 
  SAVE HEAD
  PRINT BUDGET
  SAVE BUDGET

period 2 step 1836 
  SAVE HEAD
  PRINT BUDGET
  SAVE BUDGET

period 2 step 1846 
  SAVE HEAD
  PRINT BUDGET
  SAVE BUDGET

period 2 step 1857 
  SAVE HEAD
  PRINT BUDGET
  SAVE BUDGET

period 2 step 1868 
  SAVE HEAD
  PRINT BUDGET
  SAVE BUDGET

period 2 step 1879 
  SAVE HEAD
  PRINT BUDGET
  SAVE BUDGET

period 2 step 1889 
  SAVE HEAD
  PRINT BUDGET
  SAVE BUDGET

period 2 step 1900 
  SAVE HEAD
  PRINT BUDGET
  SAVE BUDGET

period 2 step 1911 
  SAVE HEAD
  PRINT BUDGET
  SAVE BUDGET

period 2 step 1921 
  SAVE HEAD
  PRINT BUDGET
  SAVE BUDGET

period 2 step 1932 
  SAVE HEAD
  PRINT BUDGET
  SAVE BUDGET

period 2 step 1943 
  SAVE HEAD
  PRINT BUDGET
  SAVE BUDGET

period 2 step 1954 
  SAVE HEAD
  PRINT BUDGET
  SAVE BUDGET

period 2 step 1964 
  SAVE HEAD
  PRINT BUDGET
  SAVE BUDGET

period 2 step 1975 
  SAVE HEAD
  PRINT BUDGET
  SAVE BUDGET

period 2 step 1986 
  SAVE HEAD
  PRINT BUDGET
  SAVE BUDGET

period 2 step 1997 
  SAVE HEAD
  PRINT BUDGET
  SAVE BUDGET

period 2 step 2007 
  SAVE HEAD
  PRINT BUDGET
  SAVE BUDGET

period 2 step 2018 
  SAVE HEAD
  PRINT BUDGET
  SAVE BUDGET

period 2 step 2029 
  SAVE HEAD
  PRINT BUDGET
  SAVE BUDGET

period 2 step 2039 
  SAVE HEAD
  PRINT BUDGET
  SAVE BUDGET

period 2 step 2050 
  SAVE HEAD
  PRINT BUDGET
  SAVE BUDGET

period 2 step 2061 
  SAVE HEAD
  PRINT BUDGET
  SAVE BUDGET

period 2 step 2072 
  SAVE HEAD
  PRINT BUDGET
  SAVE BUDGET

period 2 step 2082 
  SAVE HEAD
  PRINT BUDGET
  SAVE BUDGET

period 2 step 2093 
  SAVE HEAD
  PRINT BUDGET
  SAVE BUDGET

period 2 step 2104 
  SAVE HEAD
  PRINT BUDGET
  SAVE BUDGET

period 2 step 2115 
  SAVE HEAD
  PRINT BUDGET
  SAVE BUDGET

period 2 step 2125 
  SAVE HEAD
  PRINT BUDGET
  SAVE BUDGET

period 2 step 2136 
  SAVE HEAD
  PRINT BUDGET
  SAVE BUDGET

period 2 step 2147 
  SAVE HEAD
  PRINT BUDGET
  SAVE BUDGET

period 2 step 2158 
  SAVE HEAD
  PRINT BUDGET
  SAVE BUDGET

period 2 step 2168 
  SAVE HEAD
  PRINT BUDGET
  SAVE BUDGET

period 2 step 2179 
  SAVE HEAD
  PRINT BUDGET
  SAVE BUDGET

period 2 step 2190 
  SAVE HEAD
  PRINT BUDGET
  SAVE BUDGET

period 2 step 2200 
  SAVE HEAD
  PRINT BUDGET
  SAVE BUDGET

period 2 step 2211 
  SAVE HEAD
  PRINT BUDGET
  SAVE BUDGET

period 2 step 2222 
  SAVE HEAD
  PRINT BUDGET
  SAVE BUDGET

period 2 step 2233 
  SAVE HEAD
  PRINT BUDGET
  SAVE BUDGET

period 2 step 2243 
  SAVE HEAD
  PRINT BUDGET
  SAVE BUDGET

period 2 step 2254 
  SAVE HEAD
  PRINT BUDGET
  SAVE BUDGET

period 2 step 2265 
  SAVE HEAD
  PRINT BUDGET
  SAVE BUDGET

period 2 step 2276 
  SAVE HEAD
  PRINT BUDGET
  SAVE BUDGET

period 2 step 2286 
  SAVE HEAD
  PRINT BUDGET
  SAVE BUDGET

period 2 step 2297 
  SAVE HEAD
  PRINT BUDGET
  SAVE BUDGET

period 2 step 2308 
  SAVE HEAD
  PRINT BUDGET
  SAVE BUDGET

period 2 step 2318 
  SAVE HEAD
  PRINT BUDGET
  SAVE BUDGET

period 2 step 2329 
  SAVE HEAD
  PRINT BUDGET
  SAVE BUDGET

period 2 step 2340 
  SAVE HEAD
  PRINT BUDGET
  SAVE BUDGET

period 2 step 2351 
  SAVE HEAD
  PRINT BUDGET
  SAVE BUDGET

period 2 step 2361 
  SAVE HEAD
  PRINT BUDGET
  SAVE BUDGET

period 2 step 2372 
  SAVE HEAD
  PRINT BUDGET
  SAVE BUDGET

period 2 step 2383 
  SAVE HEAD
  PRINT BUDGET
  SAVE BUDGET

period 2 step 2394 
  SAVE HEAD
  PRINT BUDGET
  SAVE BUDGET

period 2 step 2404 
  SAVE HEAD
  PRINT BUDGET
  SAVE BUDGET

period 2 step 2415 
  SAVE HEAD
  PRINT BUDGET
  SAVE BUDGET

period 2 step 2426 
  SAVE HEAD
  PRINT BUDGET
  SAVE BUDGET

period 2 step 2437 
  SAVE HEAD
  PRINT BUDGET
  SAVE BUDGET

period 2 step 2447 
  SAVE HEAD
  PRINT BUDGET
  SAVE BUDGET

period 2 step 2458 
  SAVE HEAD
  PRINT BUDGET
  SAVE BUDGET

period 2 step 2469 
  SAVE HEAD
  PRINT BUDGET
  SAVE BUDGET

period 2 step 2479 
  SAVE HEAD
  PRINT BUDGET
  SAVE BUDGET

period 2 step 2490 
  SAVE HEAD
  PRINT BUDGET
  SAVE BUDGET

period 2 step 2501 
  SAVE HEAD
  PRINT BUDGET
  SAVE BUDGET

period 2 step 2512 
  SAVE HEAD
  PRINT BUDGET
  SAVE BUDGET

period 2 step 2522 
  SAVE HEAD
  PRINT BUDGET
  SAVE BUDGET

period 2 step 2533 
  SAVE HEAD
  PRINT BUDGET
  SAVE BUDGET

period 2 step 2544 
  SAVE HEAD
  PRINT BUDGET
  SAVE BUDGET

period 2 step 2555 
  SAVE HEAD
  PRINT BUDGET
  SAVE BUDGET

period 2 step 2565 
  SAVE HEAD
  PRINT BUDGET
  SAVE BUDGET

period 2 step 2576 
  SAVE HEAD
  PRINT BUDGET
  SAVE BUDGET

period 2 step 2587 
  SAVE HEAD
  PRINT BUDGET
  SAVE BUDGET

period 2 step 2598 
  SAVE HEAD
  PRINT BUDGET
  SAVE BUDGET

period 2 step 2608 
  SAVE HEAD
  PRINT BUDGET
  SAVE BUDGET

period 2 step 2619 
  SAVE HEAD
  PRINT BUDGET
  SAVE BUDGET

period 2 step 2630 
  SAVE HEAD
  PRINT BUDGET
  SAVE BUDGET

period 2 step 2640 
  SAVE HEAD
  PRINT BUDGET
  SAVE BUDGET

period 2 step 2651 
  SAVE HEAD
  PRINT BUDGET
  SAVE BUDGET

period 2 step 2662 
  SAVE HEAD
  PRINT BUDGET
  SAVE BUDGET

period 2 step 2673 
  SAVE HEAD
  PRINT BUDGET
  SAVE BUDGET

period 2 step 2683 
  SAVE HEAD
  PRINT BUDGET
  SAVE BUDGET

period 2 step 2694 
  SAVE HEAD
  PRINT BUDGET
  SAVE BUDGET

period 2 step 2705 
  SAVE HEAD
  PRINT BUDGET
  SAVE BUDGET

period 2 step 2716 
  SAVE HEAD
  PRINT BUDGET
  SAVE BUDGET

period 2 step 2726 
  SAVE HEAD
  PRINT BUDGET
  SAVE BUDGET

period 2 step 2737 
  SAVE HEAD
  PRINT BUDGET
  SAVE BUDGET

period 2 step 2748 
  SAVE HEAD
  PRINT BUDGET
  SAVE BUDGET

period 2 step 2758 
  SAVE HEAD
  PRINT BUDGET
  SAVE BUDGET

period 2 step 2769 
  SAVE HEAD
  PRINT BUDGET
  SAVE BUDGET

period 2 step 2780 
  SAVE HEAD
  PRINT BUDGET
  SAVE BUDGET

period 2 step 2791 
  SAVE HEAD
  PRINT BUDGET
  SAVE BUDGET

period 2 step 2801 
  SAVE HEAD
  PRINT BUDGET
  SAVE BUDGET

period 2 step 2812 
  SAVE HEAD
  PRINT BUDGET
  SAVE BUDGET

period 2 step 2823 
  SAVE HEAD
  PRINT BUDGET
  SAVE BUDGET

period 2 step 2834 
  SAVE HEAD
  PRINT BUDGET
  SAVE BUDGET

period 2 step 2844 
  SAVE HEAD
  PRINT BUDGET
  SAVE BUDGET

period 2 step 2855 
  SAVE HEAD
  PRINT BUDGET
  SAVE BUDGET

period 2 step 2866 
  SAVE HEAD
  PRINT BUDGET
  SAVE BUDGET

period 2 step 2877 
  SAVE HEAD
  PRINT BUDGET
  SAVE BUDGET

period 2 step 2887 
  SAVE HEAD
  PRINT BUDGET
  SAVE BUDGET

period 2 step 2898 
  SAVE HEAD
  PRINT BUDGET
  SAVE BUDGET

period 2 step 2909 
  SAVE HEAD
  PRINT BUDGET
  SAVE BUDGET

period 2 step 2919 
  SAVE HEAD
  PRINT BUDGET
  SAVE BUDGET

period 2 step 2930 
  SAVE HEAD
  PRINT BUDGET
  SAVE BUDGET

period 2 step 2941 
  SAVE HEAD
  PRINT BUDGET
  SAVE BUDGET

period 2 step 2952 
  SAVE HEAD
  PRINT BUDGET
  SAVE BUDGET

period 2 step 2962 
  SAVE HEAD
  PRINT BUDGET
  SAVE BUDGET

period 2 step 2973 
  SAVE HEAD
  PRINT BUDGET
  SAVE BUDGET

period 2 step 2984 
  SAVE HEAD
  PRINT BUDGET
  SAVE BUDGET

period 2 step 2995 
  SAVE HEAD
  PRINT BUDGET
  SAVE BUDGET

period 2 step 3005 
  SAVE HEAD
  PRINT BUDGET
  SAVE BUDGET

period 2 step 3016 
  SAVE HEAD
  PRINT BUDGET
  SAVE BUDGET

period 2 step 3027 
  SAVE HEAD
  PRINT BUDGET
  SAVE BUDGET

period 2 step 3038 
  SAVE HEAD
  PRINT BUDGET
  SAVE BUDGET

period 2 step 3048 
  SAVE HEAD
  PRINT BUDGET
  SAVE BUDGET

period 2 step 3059 
  SAVE HEAD
  PRINT BUDGET
  SAVE BUDGET

period 2 step 3070 
  SAVE HEAD
  PRINT BUDGET
  SAVE BUDGET

period 2 step 3080 
  SAVE HEAD
  PRINT BUDGET
  SAVE BUDGET

period 2 step 3091 
  SAVE HEAD
  PRINT BUDGET
  SAVE BUDGET

period 2 step 3102 
  SAVE HEAD
  PRINT BUDGET
  SAVE BUDGET

period 2 step 3113 
  SAVE HEAD
  PRINT BUDGET
  SAVE BUDGET

period 2 step 3123 
  SAVE HEAD
  PRINT BUDGET
  SAVE BUDGET

period 2 step 3134 
  SAVE HEAD
  PRINT BUDGET
  SAVE BUDGET

period 2 step 3145 
  SAVE HEAD
  PRINT BUDGET
  SAVE BUDGET

period 2 step 3156 
  SAVE HEAD
  PRINT BUDGET
  SAVE BUDGET

period 2 step 3166 
  SAVE HEAD
  PRINT BUDGET
  SAVE BUDGET

period 2 step 3177 
  SAVE HEAD
  PRINT BUDGET
  SAVE BUDGET

period 2 step 3188 
  SAVE HEAD
  PRINT BUDGET
  SAVE BUDGET

period 2 step 3198 
  SAVE HEAD
  PRINT BUDGET
  SAVE BUDGET

period 2 step 3209 
  SAVE HEAD
  PRINT BUDGET
  SAVE BUDGET

period 2 step 3220 
  SAVE HEAD
  PRINT BUDGET
  SAVE BUDGET

period 2 step 3231 
  SAVE HEAD
  PRINT BUDGET
  SAVE BUDGET

period 2 step 3241 
  SAVE HEAD
  PRINT BUDGET
  SAVE BUDGET

period 2 step 3252 
  SAVE HEAD
  PRINT BUDGET
  SAVE BUDGET

period 2 step 3263 
  SAVE HEAD
  PRINT BUDGET
  SAVE BUDGET

period 2 step 3274 
  SAVE HEAD
  PRINT BUDGET
  SAVE BUDGET

period 2 step 3284 
  SAVE HEAD
  PRINT BUDGET
  SAVE BUDGET

period 2 step 3295 
  SAVE HEAD
  PRINT BUDGET
  SAVE BUDGET

period 2 step 3306 
  SAVE HEAD
  PRINT BUDGET
  SAVE BUDGET

period 2 step 3317 
  SAVE HEAD
  PRINT BUDGET
  SAVE BUDGET

period 2 step 3327 
  SAVE HEAD
  PRINT BUDGET
  SAVE BUDGET

period 2 step 3338 
  SAVE HEAD
  PRINT BUDGET
  SAVE BUDGET

period 2 step 3349 
  SAVE HEAD
  PRINT BUDGET
  SAVE BUDGET

period 2 step 3359 
  SAVE HEAD
  PRINT BUDGET
  SAVE BUDGET

period 2 step 3370 
  SAVE HEAD
  PRINT BUDGET
  SAVE BUDGET

period 2 step 3381 
  SAVE HEAD
  PRINT BUDGET
  SAVE BUDGET

period 2 step 3392 
  SAVE HEAD
  PRINT BUDGET
  SAVE BUDGET

period 2 step 3402 
  SAVE HEAD
  PRINT BUDGET
  SAVE BUDGET

period 2 step 3413 
  SAVE HEAD
  PRINT BUDGET
  SAVE BUDGET

period 2 step 3424 
  SAVE HEAD
  PRINT BUDGET
  SAVE BUDGET

period 2 step 3435 
  SAVE HEAD
  PRINT BUDGET
  SAVE BUDGET

period 2 step 3445 
  SAVE HEAD
  PRINT BUDGET
  SAVE BUDGET

period 2 step 3456 
  SAVE HEAD
  PRINT BUDGET
  SAVE BUDGET

period 2 step 3467 
  SAVE HEAD
  PRINT BUDGET
  SAVE BUDGET

period 2 step 3477 
  SAVE HEAD
  PRINT BUDGET
  SAVE BUDGET

period 2 step 3488 
  SAVE HEAD
  PRINT BUDGET
  SAVE BUDGET

period 2 step 3499 
  SAVE HEAD
  PRINT BUDGET
  SAVE BUDGET

period 2 step 3510 
  SAVE HEAD
  PRINT BUDGET
  SAVE BUDGET

period 2 step 3520 
  SAVE HEAD
  PRINT BUDGET
  SAVE BUDGET

period 2 step 3531 
  SAVE HEAD
  PRINT BUDGET
  SAVE BUDGET

period 2 step 3542 
  SAVE HEAD
  PRINT BUDGET
  SAVE BUDGET

period 2 step 3553 
  SAVE HEAD
  PRINT BUDGET
  SAVE BUDGET

period 2 step 3563 
  SAVE HEAD
  PRINT BUDGET
  SAVE BUDGET

period 2 step 3574 
  SAVE HEAD
  PRINT BUDGET
  SAVE BUDGET

period 2 step 3585 
  SAVE HEAD
  PRINT BUDGET
  SAVE BUDGET

period 2 step 3596 
  SAVE HEAD
  PRINT BUDGET
  SAVE BUDGET

period 2 step 3606 
  SAVE HEAD
  PRINT BUDGET
  SAVE BUDGET

period 2 step 3617 
  SAVE HEAD
  PRINT BUDGET
  SAVE BUDGET

period 2 step 3628 
  SAVE HEAD
  PRINT BUDGET
  SAVE BUDGET

period 2 step 3638 
  SAVE HEAD
  PRINT BUDGET
  SAVE BUDGET

period 2 step 3649 
  SAVE HEAD
  PRINT BUDGET
  SAVE BUDGET

period 2 step 3660 
  SAVE HEAD
  PRINT BUDGET
  SAVE BUDGET

period 2 step 3671 
  SAVE HEAD
  PRINT BUDGET
  SAVE BUDGET

period 2 step 3681 
  SAVE HEAD
  PRINT BUDGET
  SAVE BUDGET

period 2 step 3692 
  SAVE HEAD
  PRINT BUDGET
  SAVE BUDGET

period 2 step 3703 
  SAVE HEAD
  PRINT BUDGET
  SAVE BUDGET

period 2 step 3714 
  SAVE HEAD
  PRINT BUDGET
  SAVE BUDGET

period 2 step 3724 
  SAVE HEAD
  PRINT BUDGET
  SAVE BUDGET

period 2 step 3735 
  SAVE HEAD
  PRINT BUDGET
  SAVE BUDGET

period 2 step 3746 
  SAVE HEAD
  PRINT BUDGET
  SAVE BUDGET

period 2 step 3757 
  SAVE HEAD
  PRINT BUDGET
  SAVE BUDGET

period 2 step 3767 
  SAVE HEAD
  PRINT BUDGET
  SAVE BUDGET

period 2 step 3778 
  SAVE HEAD
  PRINT BUDGET
  SAVE BUDGET

period 2 step 3789 
  SAVE HEAD
  PRINT BUDGET
  SAVE BUDGET

period 2 step 3799 
  SAVE HEAD
  PRINT BUDGET
  SAVE BUDGET

period 2 step 3810 
  SAVE HEAD
  PRINT BUDGET
  SAVE BUDGET

period 2 step 3821 
  SAVE HEAD
  PRINT BUDGET
  SAVE BUDGET

period 2 step 3832 
  SAVE HEAD
  PRINT BUDGET
  SAVE BUDGET

period 2 step 3842 
  SAVE HEAD
  PRINT BUDGET
  SAVE BUDGET

period 2 step 3853 
  SAVE HEAD
  PRINT BUDGET
  SAVE BUDGET

period 2 step 3864 
  SAVE HEAD
  PRINT BUDGET
  SAVE BUDGET

period 2 step 3875 
  SAVE HEAD
  PRINT BUDGET
  SAVE BUDGET

period 2 step 3885 
  SAVE HEAD
  PRINT BUDGET
  SAVE BUDGET

period 2 step 3896 
  SAVE HEAD
  PRINT BUDGET
  SAVE BUDGET

period 2 step 3907 
  SAVE HEAD
  PRINT BUDGET
  SAVE BUDGET

period 2 step 3917 
  SAVE HEAD
  PRINT BUDGET
  SAVE BUDGET

period 2 step 3928 
  SAVE HEAD
  PRINT BUDGET
  SAVE BUDGET

period 2 step 3939 
  SAVE HEAD
  PRINT BUDGET
  SAVE BUDGET

period 2 step 3950 
  SAVE HEAD
  PRINT BUDGET
  SAVE BUDGET

period 2 step 3960 
  SAVE HEAD
  PRINT BUDGET
  SAVE BUDGET

period 2 step 3971 
  SAVE HEAD
  PRINT BUDGET
  SAVE BUDGET

period 2 step 3982 
  SAVE HEAD
  PRINT BUDGET
  SAVE BUDGET

period 2 step 3993 
  SAVE HEAD
  PRINT BUDGET
  SAVE BUDGET

period 2 step 4003 
  SAVE HEAD
  PRINT BUDGET
  SAVE BUDGET

period 2 step 4014 
  SAVE HEAD
  PRINT BUDGET
  SAVE BUDGET

period 2 step 4025 
  SAVE HEAD
  PRINT BUDGET
  SAVE BUDGET

period 2 step 4036 
  SAVE HEAD
  PRINT BUDGET
  SAVE BUDGET

period 2 step 4046 
  SAVE HEAD
  PRINT BUDGET
  SAVE BUDGET

period 2 step 4057 
  SAVE HEAD
  PRINT BUDGET
  SAVE BUDGET

period 2 step 4068 
  SAVE HEAD
  PRINT BUDGET
  SAVE BUDGET

period 2 step 4078 
  SAVE HEAD
  PRINT BUDGET
  SAVE BUDGET

period 2 step 4089 
  SAVE HEAD
  PRINT BUDGET
  SAVE BUDGET

period 2 step 4100 
  SAVE HEAD
  PRINT BUDGET
  SAVE BUDGET

period 2 step 4111 
  SAVE HEAD
  PRINT BUDGET
  SAVE BUDGET

period 2 step 4121 
  SAVE HEAD
  PRINT BUDGET
  SAVE BUDGET

period 2 step 4132 
  SAVE HEAD
  PRINT BUDGET
  SAVE BUDGET

period 2 step 4143 
  SAVE HEAD
  PRINT BUDGET
  SAVE BUDGET

period 2 step 4154 
  SAVE HEAD
  PRINT BUDGET
  SAVE BUDGET

period 2 step 4164 
  SAVE HEAD
  PRINT BUDGET
  SAVE BUDGET

period 2 step 4175 
  SAVE HEAD
  PRINT BUDGET
  SAVE BUDGET

period 2 step 4186 
  SAVE HEAD
  PRINT BUDGET
  SAVE BUDGET

period 2 step 4197 
  SAVE HEAD
  PRINT BUDGET
  SAVE BUDGET

period 2 step 4207 
  SAVE HEAD
  PRINT BUDGET
  SAVE BUDGET

period 2 step 4218 
  SAVE HEAD
  PRINT BUDGET
  SAVE BUDGET

period 2 step 4229 
  SAVE HEAD
  PRINT BUDGET
  SAVE BUDGET

period 2 step 4239 
  SAVE HEAD
  PRINT BUDGET
  SAVE BUDGET

period 2 step 4250 
  SAVE HEAD
  PRINT BUDGET
  SAVE BUDGET

period 2 step 4261 
  SAVE HEAD
  PRINT BUDGET
  SAVE BUDGET

period 2 step 4272 
  SAVE HEAD
  PRINT BUDGET
  SAVE BUDGET

period 2 step 4282 
  SAVE HEAD
  PRINT BUDGET
  SAVE BUDGET

period 2 step 4293 
  SAVE HEAD
  PRINT BUDGET
  SAVE BUDGET

period 2 step 4304 
  SAVE HEAD
  PRINT BUDGET
  SAVE BUDGET

period 2 step 4315 
  SAVE HEAD
  PRINT BUDGET
  SAVE BUDGET

period 2 step 4325 
  SAVE HEAD
  PRINT BUDGET
  SAVE BUDGET

period 2 step 4336 
  SAVE HEAD
  PRINT BUDGET
  SAVE BUDGET

period 2 step 4347 
  SAVE HEAD
  PRINT BUDGET
  SAVE BUDGET

period 2 step 4357 
  SAVE HEAD
  PRINT BUDGET
  SAVE BUDGET

period 2 step 4368 
  SAVE HEAD
  PRINT BUDGET
  SAVE BUDGET

period 2 step 4379 
  SAVE HEAD
  PRINT BUDGET
  SAVE BUDGET

period 2 step 4390 
  SAVE HEAD
  PRINT BUDGET
  SAVE BUDGET

period 2 step 4400 
  SAVE HEAD
  PRINT BUDGET
  SAVE BUDGET

period 2 step 4411 
  SAVE HEAD
  PRINT BUDGET
  SAVE BUDGET

period 2 step 4422 
  SAVE HEAD
  PRINT BUDGET
  SAVE BUDGET

period 2 step 4433 
  SAVE HEAD
  PRINT BUDGET
  SAVE BUDGET

period 2 step 4443 
  SAVE HEAD
  PRINT BUDGET
  SAVE BUDGET

period 2 step 4454 
  SAVE HEAD
  PRINT BUDGET
  SAVE BUDGET

period 2 step 4465 
  SAVE HEAD
  PRINT BUDGET
  SAVE BUDGET

period 2 step 4476 
  SAVE HEAD
  PRINT BUDGET
  SAVE BUDGET

period 2 step 4486 
  SAVE HEAD
  PRINT BUDGET
  SAVE BUDGET

period 2 step 4497 
  SAVE HEAD
  PRINT BUDGET
  SAVE BUDGET

period 2 step 4508 
  SAVE HEAD
  PRINT BUDGET
  SAVE BUDGET

period 2 step 4518 
  SAVE HEAD
  PRINT BUDGET
  SAVE BUDGET

period 2 step 4529 
  SAVE HEAD
  PRINT BUDGET
  SAVE BUDGET

period 2 step 4540 
  SAVE HEAD
  PRINT BUDGET
  SAVE BUDGET

period 2 step 4551 
  SAVE HEAD
  PRINT BUDGET
  SAVE BUDGET

period 2 step 4561 
  SAVE HEAD
  PRINT BUDGET
  SAVE BUDGET

period 2 step 4572 
  SAVE HEAD
  PRINT BUDGET
  SAVE BUDGET

period 2 step 4583 
  SAVE HEAD
  PRINT BUDGET
  SAVE BUDGET

period 2 step 4594 
  SAVE HEAD
  PRINT BUDGET
  SAVE BUDGET

period 2 step 4604 
  SAVE HEAD
  PRINT BUDGET
  SAVE BUDGET

period 2 step 4615 
  SAVE HEAD
  PRINT BUDGET
  SAVE BUDGET

period 2 step 4626 
  SAVE HEAD
  PRINT BUDGET
  SAVE BUDGET

period 2 step 4636 
  SAVE HEAD
  PRINT BUDGET
  SAVE BUDGET

period 2 step 4647 
  SAVE HEAD
  PRINT BUDGET
  SAVE BUDGET

period 2 step 4658 
  SAVE HEAD
  PRINT BUDGET
  SAVE BUDGET

period 2 step 4669 
  SAVE HEAD
  PRINT BUDGET
  SAVE BUDGET

period 2 step 4679 
  SAVE HEAD
  PRINT BUDGET
  SAVE BUDGET

period 2 step 4690 
  SAVE HEAD
  PRINT BUDGET
  SAVE BUDGET

period 2 step 4701 
  SAVE HEAD
  PRINT BUDGET
  SAVE BUDGET

period 2 step 4712 
  SAVE HEAD
  PRINT BUDGET
  SAVE BUDGET

period 2 step 4722 
  SAVE HEAD
  PRINT BUDGET
  SAVE BUDGET

period 2 step 4733 
  SAVE HEAD
  PRINT BUDGET
  SAVE BUDGET

period 2 step 4744 
  SAVE HEAD
  PRINT BUDGET
  SAVE BUDGET

period 2 step 4755 
  SAVE HEAD
  PRINT BUDGET
  SAVE BUDGET

period 2 step 4765 
  SAVE HEAD
  PRINT BUDGET
  SAVE BUDGET

period 2 step 4776 
  SAVE HEAD
  PRINT BUDGET
  SAVE BUDGET

period 2 step 4787 
  SAVE HEAD
  PRINT BUDGET
  SAVE BUDGET

period 2 step 4797 
  SAVE HEAD
  PRINT BUDGET
  SAVE BUDGET

period 2 step 4808 
  SAVE HEAD
  PRINT BUDGET
  SAVE BUDGET

period 2 step 4819 
  SAVE HEAD
  PRINT BUDGET
  SAVE BUDGET

period 2 step 4830 
  SAVE HEAD
  PRINT BUDGET
  SAVE BUDGET

period 2 step 4840 
  SAVE HEAD
  PRINT BUDGET
  SAVE BUDGET

period 2 step 4851 
  SAVE HEAD
  PRINT BUDGET
  SAVE BUDGET

period 2 step 4862 
  SAVE HEAD
  PRINT BUDGET
  SAVE BUDGET

period 2 step 4873 
  SAVE HEAD
  PRINT BUDGET
  SAVE BUDGET

period 2 step 4883 
  SAVE HEAD
  PRINT BUDGET
  SAVE BUDGET

period 2 step 4894 
  SAVE HEAD
  PRINT BUDGET
  SAVE BUDGET

period 2 step 4905 
  SAVE HEAD
  PRINT BUDGET
  SAVE BUDGET

period 2 step 4916 
  SAVE HEAD
  PRINT BUDGET
  SAVE BUDGET

period 2 step 4926 
  SAVE HEAD
  PRINT BUDGET
  SAVE BUDGET

period 2 step 4937 
  SAVE HEAD
  PRINT BUDGET
  SAVE BUDGET

period 2 step 4948 
  SAVE HEAD
  PRINT BUDGET
  SAVE BUDGET

period 2 step 4958 
  SAVE HEAD
  PRINT BUDGET
  SAVE BUDGET

period 2 step 4969 
  SAVE HEAD
  PRINT BUDGET
  SAVE BUDGET

period 2 step 4980 
  SAVE HEAD
  PRINT BUDGET
  SAVE BUDGET

period 2 step 4991 
  SAVE HEAD
  PRINT BUDGET
  SAVE BUDGET

period 2 step 5001 
  SAVE HEAD
  PRINT BUDGET
  SAVE BUDGET

period 2 step 5012 
  SAVE HEAD
  PRINT BUDGET
  SAVE BUDGET

period 2 step 5023 
  SAVE HEAD
  PRINT BUDGET
  SAVE BUDGET

period 2 step 5034 
  SAVE HEAD
  PRINT BUDGET
  SAVE BUDGET

period 2 step 5044 
  SAVE HEAD
  PRINT BUDGET
  SAVE BUDGET

period 2 step 5055 
  SAVE HEAD
  PRINT BUDGET
  SAVE BUDGET

period 2 step 5066 
  SAVE HEAD
  PRINT BUDGET
  SAVE BUDGET

period 2 step 5076 
  SAVE HEAD
  PRINT BUDGET
  SAVE BUDGET

period 2 step 5087 
  SAVE HEAD
  PRINT BUDGET
  SAVE BUDGET

period 2 step 5098 
  SAVE HEAD
  PRINT BUDGET
  SAVE BUDGET

period 2 step 5109 
  SAVE HEAD
  PRINT BUDGET
  SAVE BUDGET

period 2 step 5119 
  SAVE HEAD
  PRINT BUDGET
  SAVE BUDGET

period 2 step 5130 
  SAVE HEAD
  PRINT BUDGET
  SAVE BUDGET

period 2 step 5141 
  SAVE HEAD
  PRINT BUDGET
  SAVE BUDGET

period 2 step 5152 
  SAVE HEAD
  PRINT BUDGET
  SAVE BUDGET

period 2 step 5162 
  SAVE HEAD
  PRINT BUDGET
  SAVE BUDGET

period 2 step 5173 