# SFR package for  MODFLOW-NWT, generated by Flopy.
reachinput 
195 15 0 0 86400.00000000 0.00010000 55 81 3 15 1 50 
1 19 63 1 1 127.0 2086.91088867 0.000987709616311 0.5 0.10000000149 0.310000002384 0.130999997258 3.5 0.10000000149
1 20 64 1 2 109.0 2082.10083008 0.000739357899874 0.5 0.10000000149 0.310000002384 0.130999997258 3.5 0.10000000149
1 21 64 1 3 109.0 2078.26049805 0.00119814474601 0.5 0.10000000149 0.310000002384 0.130999997258 3.5 0.10000000149
1 22 65 1 4 127.0 2072.01489258 0.00128167355433 0.5 0.10000000149 0.310000002384 0.130999997258 3.5 0.10000000149
1 23 66 1 5 127.0 2060.27172852 0.00131699221674 0.5 0.10000000149 0.310000002384 0.130999997258 3.5 0.10000000149
1 24 67 1 6 109.0 2052.79394531 0.000814486178569 0.5 0.10000000149 0.310000002384 0.130999997258 3.5 0.10000000149
1 25 67 1 7 90.0 2049.67944336 0.000614317366853 0.5 0.10000000149 0.310000002384 0.130999997258 3.5 0.10000000149
1 26 67 1 8 109.0 2046.9074707 0.000750211358536 0.5 0.10000000149 0.310000002384 0.130999997258 3.5 0.10000000149
1 27 68 1 9 127.0 2044.75378418 0.000161260075402 0.5 0.10000000149 0.310000002384 0.130999997258 3.5 0.10000000149
1 28 69 1 10 127.0 2043.89147949 0.000296789803542 0.5 0.10000000149 0.310000002384 0.130999997258 3.5 0.10000000149
1 29 70 1 11 127.0 2042.99084473 0.000702658202499 0.5 0.10000000149 0.310000002384 0.130999997258 3.5 0.10000000149
1 30 71 1 12 109.0 2041.52197266 0.000900990678929 0.5 0.10000000149 0.310000002384 0.130999997258 3.5 0.10000000149
1 31 71 1 13 109.0 2039.48498535 0.000841660366859 0.5 0.10000000149 0.310000002384 0.130999997258 3.5 0.10000000149
1 32 72 1 14 109.0 2032.35571289 0.000943509687204 0.5 0.10000000149 0.310000002384 0.130999997258 3.5 0.10000000149
1 33 72 1 15 90.0 2028.46069336 0.00104127253871 0.5 0.10000000149 0.310000002384 0.130999997258 3.5 0.10000000149
1 34 72 1 16 109.0 2022.36535645 0.00143654958811 0.5 0.10000000149 0.310000002384 0.130999997258 3.5 0.10000000149
1 35 73 1 17 109.0 2009.73474121 0.00174784823321 0.5 0.10000000149 0.310000002384 0.130999997258 3.5 0.10000000149
1 36 73 1 18 109.0 2005.55957031 0.00102578441147 0.5 0.10000000149 0.310000002384 0.130999997258 3.5 0.10000000149
1 37 72 1 19 109.0 1996.67651367 0.00269775744528 0.5 0.10000000149 0.310000002384 0.130999997258 3.5 0.10000000149
1 38 72 1 20 90.0 1983.82165527 0.00257416558452 0.5 0.10000000149 0.310000002384 0.130999997258 3.5 0.10000000149
1 39 72 1 21 90.0 1972.36669922 0.00151592912152 0.5 0.10000000149 0.310000002384 0.130999997258 3.5 0.10000000149
1 40 72 1 22 90.0 1963.92810059 0.00112345279194 0.5 0.10000000149 0.310000002384 0.130999997258 3.5 0.10000000149
1 41 72 1 23 109.0 1956.73706055 0.000766303273849 0.5 0.10000000149 0.310000002384 0.130999997258 3.5 0.10000000149
1 42 73 1 24 127.0 1946.71899414 0.000894383119885 0.5 0.10000000149 0.310000002384 0.130999997258 3.5 0.10000000149
1 24 51 2 1 90.0 2077.91479492 0.00253308471292 0.5 0.10000000149 0.310000002384 0.130999997258 3.5 0.10000000149
1 25 51 2 2 90.0 2067.64086914 0.00231713475659 0.5 0.10000000149 0.310000002384 0.130999997258 3.5 0.10000000149
1 26 51 2 3 90.0 2058.54077148 0.00164686981589 0.5 0.10000000149 0.310000002384 0.130999997258 3.5 0.10000000149
1 27 51 2 4 109.0 2050.00927734 0.00118654535618 0.5 0.10000000149 0.310000002384 0.130999997258 3.5 0.10000000149
1 28 52 2 5 109.0 2039.43518066 0.00143774377648 0.5 0.10000000149 0.310000002384 0.130999997258 3.5 0.10000000149
1 29 52 2 6 109.0 2032.26794434 0.00101470260415 0.5 0.10000000149 0.310000002384 0.130999997258 3.5 0.10000000149
1 30 53 2 7 109.0 2024.39440918 0.00108859606553 0.5 0.10000000149 0.310000002384 0.130999997258 3.5 0.10000000149
1 31 53 2 8 109.0 2019.12915039 0.00114214594942 0.5 0.10000000149 0.310000002384 0.130999997258 3.5 0.10000000149
1 32 54 2 9 109.0 2013.31225586 0.000910061004106 0.5 0.10000000149 0.310000002384 0.130999997258 3.5 0.10000000149
1 33 54 2 10 109.0 2008.47253418 0.00122033932712 0.5 0.10000000149 0.310000002384 0.130999997258 3.5 0.10000000149
1 34 55 2 11 109.0 2002.95800781 0.000904484768398 0.5 0.10000000149 0.310000002384 0.130999997258 3.5 0.10000000149
1 35 55 2 12 90.0 1998.67053223 0.000862552726176 0.5 0.10000000149 0.310000002384 0.130999997258 3.5 0.10000000149
1 36 55 2 13 109.0 1995.04699707 0.000572467979509 0.5 0.10000000149 0.310000002384 0.130999997258 3.5 0.10000000149
1 37 56 2 14 127.0 1989.59313965 0.000639667268842 0.5 0.10000000149 0.310000002384 0.130999997258 3.5 0.10000000149
1 38 57 2 15 127.0 1984.74389648 0.000811315549072 0.5 0.10000000149 0.310000002384 0.130999997258 3.5 0.10000000149
1 39 58 2 16 109.0 1978.72460938 0.00118125032168 0.5 0.10000000149 0.310000002384 0.130999997258 3.5 0.10000000149
1 39 40 3 1 154.0 2051.06054688 0.000979678356089 0.5 0.10000000149 0.310000002384 0.130999997258 3.5 0.10000000149
1 38 41 3 2 127.0 2045.07165527 0.00136310176458 0.5 0.10000000149 0.310000002384 0.130999997258 3.5 0.10000000149
1 37 42 3 3 127.0 2036.69335938 0.000991319771856 0.5 0.10000000149 0.310000002384 0.130999997258 3.5 0.10000000149
1 36 43 3 4 109.0 2031.7779541 0.00100995029788 0.5 0.10000000149 0.310000002384 0.130999997258 3.5 0.10000000149
1 36 44 3 5 90.0 2027.82788086 0.000816916231997 0.5 0.10000000149 0.310000002384 0.130999997258 3.5 0.10000000149
1 36 45 3 6 109.0 2023.89343262 0.000743057520594 0.5 0.10000000149 0.310000002384 0.130999997258 3.5 0.10000000149
1 37 46 3 7 127.0 2019.60437012 0.000926247565076 0.5 0.10000000149 0.310000002384 0.130999997258 3.5 0.10000000149
1 38 47 3 8 109.0 2015.77490234 0.000867589609697 0.5 0.10000000149 0.310000002384 0.130999997258 3.5 0.10000000149
1 38 48 3 9 90.0 2012.18847656 0.000640813843347 0.5 0.10000000149 0.310000002384 0.130999997258 3.5 0.10000000149
1 38 49 3 10 90.0 2008.92138672 0.000930362963118 0.5 0.10000000149 0.310000002384 0.130999997258 3.5 0.10000000149
1 38 50 4 1 173.0 2004.90270996 0.00130541168619 0.5 0.10000000149 0.310000002384 0.130999997258 3.5 0.10000000149
1 39 51 4 2 109.0 1997.1887207 0.00138375745155 0.5 0.10000000149 0.310000002384 0.130999997258 3.5 0.10000000149
1 39 52 4 3 90.0 1992.06103516 0.00129989860579 0.5 0.10000000149 0.310000002384 0.130999997258 3.5 0.10000000149
1 39 53 4 4 109.0 1987.00927734 0.00155987555627 0.5 0.10000000149 0.310000002384 0.130999997258 3.5 0.10000000149
1 40 54 4 5 109.0 1984.01367188 0.000650262983982 0.5 0.10000000149 0.310000002384 0.130999997258 3.5 0.10000000149
1 40 55 4 6 90.0 1982.40979004 0.000447968952358 0.5 0.10000000149 0.310000002384 0.130999997258 3.5 0.10000000149
1 40 56 4 7 90.0 1979.79504395 0.000930451962631 0.5 0.10000000149 0.310000002384 0.130999997258 3.5 0.10000000149
1 40 57 4 8 90.0 1977.51745605 0.001478874241 0.5 0.10000000149 0.310000002384 0.130999997258 3.5 0.10000000149
1 40 36 5 1 173.0 2081.08105469 0.000930043752305 0.5 0.10000000149 0.310000002384 0.130999997258 3.5 0.10000000149
1 39 37 5 2 109.0 2072.12011719 0.00161597225815 0.5 0.10000000149 0.310000002384 0.130999997258 3.5 0.10000000149
1 39 38 5 3 90.0 2065.1171875 0.0013572270982 0.5 0.10000000149 0.310000002384 0.130999997258 3.5 0.10000000149
1 39 39 5 4 90.0 2057.77050781 0.00102057587355 0.5 0.10000000149 0.310000002384 0.130999997258 3.5 0.10000000149
1 58 53 6 1 127.0 2146.51025391 0.00167672976386 0.5 0.10000000149 0.310000002384 0.130999997258 3.5 0.10000000149
1 57 52 6 2 109.0 2131.81542969 0.00187842128798 0.5 0.10000000149 0.310000002384 0.130999997258 3.5 0.10000000149
1 56 52 6 3 109.0 2121.91479492 0.00136197521351 0.5 0.10000000149 0.310000002384 0.130999997258 3.5 0.10000000149
1 55 51 6 4 127.0 2117.28393555 0.000610229151789 0.5 0.10000000149 0.310000002384 0.130999997258 3.5 0.10000000149
1 54 50 6 5 109.0 2113.43432617 0.00100005604327 0.5 0.10000000149 0.310000002384 0.130999997258 3.5 0.10000000149
1 53 50 6 6 109.0 2110.20629883 0.00129875040147 0.5 0.10000000149 0.310000002384 0.130999997258 3.5 0.10000000149
1 52 49 6 7 127.0 2106.08813477 0.000917555473279 0.5 0.10000000149 0.310000002384 0.130999997258 3.5 0.10000000149
1 51 48 6 8 109.0 2102.28857422 0.00107153924182 0.5 0.10000000149 0.310000002384 0.130999997258 3.5 0.10000000149
1 50 48 6 9 90.0 2099.79321289 0.000950760499109 0.5 0.10000000149 0.310000002384 0.130999997258 3.5 0.10000000149
1 49 48 6 10 90.0 2093.82885742 0.00192653969862 0.5 0.10000000149 0.310000002384 0.130999997258 3.5 0.10000000149
1 48 48 6 11 90.0 2085.42553711 0.00182893429883 0.5 0.10000000149 0.310000002384 0.130999997258 3.5 0.10000000149
1 47 48 6 12 90.0 2076.97509766 0.00131685065571 0.5 0.10000000149 0.310000002384 0.130999997258 3.5 0.10000000149
1 46 48 6 13 109.0 2068.99438477 0.00107085495256 0.5 0.10000000149 0.310000002384 0.130999997258 3.5 0.10000000149
1 45 47 6 14 109.0 2057.36035156 0.00147350830957 0.5 0.10000000149 0.310000002384 0.130999997258 3.5 0.10000000149
1 44 47 6 15 90.0 2051.26391602 0.00119042012375 0.5 0.10000000149 0.310000002384 0.130999997258 3.5 0.10000000149
1 43 47 6 16 109.0 2043.38830566 0.000968631182332 0.5 0.10000000149 0.310000002384 0.130999997258 3.5 0.10000000149
1 42 48 6 17 109.0 2032.60192871 0.00129546353128 0.5 0.10000000149 0.310000002384 0.130999997258 3.5 0.10000000149
1 41 48 6 18 90.0 2026.92614746 0.00096634356305 0.5 0.10000000149 0.310000002384 0.130999997258 3.5 0.10000000149
1 40 48 6 19 109.0 2020.46520996 0.000965779530816 0.5 0.10000000149 0.310000002384 0.130999997258 3.5 0.10000000149
1 39 49 6 20 127.0 2012.63879395 0.000611116818618 0.5 0.10000000149 0.310000002384 0.130999997258 3.5 0.10000000149
1 41 24 7 1 90.0 2213.95947266 0.00222449400462 0.5 0.10000000149 0.310000002384 0.130999997258 3.5 0.10000000149
1 41 25 7 2 90.0 2196.88647461 0.00227027013898 0.5 0.10000000149 0.310000002384 0.130999997258 3.5 0.10000000149
1 41 26 7 3 90.0 2179.3269043 0.00219661486335 0.5 0.10000000149 0.310000002384 0.130999997258 3.5 0.10000000149
1 41 27 7 4 90.0 2166.14868164 0.0013323581079 0.5 0.10000000149 0.310000002384 0.130999997258 3.5 0.10000000149
1 41 28 7 5 90.0 2154.98144531 0.00150186009705 0.5 0.10000000149 0.310000002384 0.130999997258 3.5 0.10000000149
1 41 29 7 6 90.0 2142.25366211 0.00167311227415 0.5 0.10000000149 0.310000002384 0.130999997258 3.5 0.10000000149
1 41 30 7 7 109.0 2131.08300781 0.00115683814511 0.5 0.10000000149 0.310000002384 0.130999997258 3.5 0.10000000149
1 40 31 7 8 109.0 2120.44604492 0.00102663401049 0.5 0.10000000149 0.310000002384 0.130999997258 3.5 0.10000000149
1 40 32 7 9 90.0 2112.97753906 0.0009271731833 0.5 0.10000000149 0.310000002384 0.130999997258 3.5 0.10000000149
1 40 33 7 10 90.0 2103.85375977 0.00113838352263 0.5 0.10000000149 0.310000002384 0.130999997258 3.5 0.10000000149
1 40 34 7 11 90.0 2096.12939453 0.00101068161894 0.5 0.10000000149 0.310000002384 0.130999997258 3.5 0.10000000149
1 40 35 7 12 90.0 2087.12841797 0.00106368924025 0.5 0.10000000149 0.310000002384 0.130999997258 3.5 0.10000000149
1 63 40 8 1 90.0 2151.17138672 0.000218682296691 0.5 0.10000000149 0.310000002384 0.130999997258 3.5 0.10000000149
1 62 40 8 2 90.0 2149.23608398 0.000320077844663 0.5 0.10000000149 0.310000002384 0.130999997258 3.5 0.10000000149
1 61 40 8 3 90.0 2146.66210938 0.000469575461466 0.5 0.10000000149 0.310000002384 0.130999997258 3.5 0.10000000149
1 60 40 8 4 109.0 2142.89672852 0.000637649849523 0.5 0.10000000149 0.310000002384 0.130999997258 3.5 0.10000000149
1 59 41 8 5 109.0 2137.42993164 0.000810418569017 0.5 0.10000000149 0.310000002384 0.130999997258 3.5 0.10000000149
1 58 41 8 6 90.0 2133.85449219 0.0006425405154 0.5 0.10000000149 0.310000002384 0.130999997258 3.5 0.10000000149
1 57 41 8 7 90.0 2131.22509766 0.000546072493307 0.5 0.10000000149 0.310000002384 0.130999997258 3.5 0.10000000149
1 56 41 8 8 90.0 2128.71630859 0.000424561585533 0.5 0.10000000149 0.310000002384 0.130999997258 3.5 0.10000000149
1 55 41 8 9 90.0 2126.12475586 0.000517236534506 0.5 0.10000000149 0.310000002384 0.130999997258 3.5 0.10000000149
1 54 41 8 10 90.0 2123.84130859 0.000722072843928 0.5 0.10000000149 0.310000002384 0.130999997258 3.5 0.10000000149
1 53 41 8 11 109.0 2120.31030273 0.000786614778917 0.5 0.10000000149 0.310000002384 0.130999997258 3.5 0.10000000149
1 52 40 8 12 127.0 2115.25952148 0.0016589461593 0.5 0.10000000149 0.310000002384 0.130999997258 3.5 0.10000000149
1 51 39 8 13 109.0 2109.95239258 0.00151721795555 0.5 0.10000000149 0.310000002384 0.130999997258 3.5 0.10000000149
1 50 39 8 14 90.0 2105.51123047 0.00105865031946 0.5 0.10000000149 0.310000002384 0.130999997258 3.5 0.10000000149
1 49 39 8 15 90.0 2101.65527344 0.00129333185032 0.5 0.10000000149 0.310000002384 0.130999997258 3.5 0.10000000149
1 48 39 8 16 90.0 2097.40283203 0.00131674727891 0.5 0.10000000149 0.310000002384 0.130999997258 3.5 0.10000000149
1 47 39 8 17 90.0 2092.33618164 0.00111637159716 0.5 0.10000000149 0.310000002384 0.130999997258 3.5 0.10000000149
1 46 39 8 18 90.0 2086.67724609 0.00157170987222 0.5 0.10000000149 0.310000002384 0.130999997258 3.5 0.10000000149
1 45 39 8 19 109.0 2081.43334961 0.00189853541087 0.5 0.10000000149 0.310000002384 0.130999997258 3.5 0.10000000149
1 44 40 8 20 109.0 2073.42041016 0.00132943643257 0.5 0.10000000149 0.310000002384 0.130999997258 3.5 0.10000000149
1 43 40 8 21 90.0 2069.41601562 0.000819193082862 0.5 0.10000000149 0.310000002384 0.130999997258 3.5 0.10000000149
1 42 40 8 22 90.0 2065.68334961 0.00105413468555 0.5 0.10000000149 0.310000002384 0.130999997258 3.5 0.10000000149
1 41 40 8 23 90.0 2060.36889648 0.000851405900903 0.5 0.10000000149 0.310000002384 0.130999997258 3.5 0.10000000149
1 40 40 8 24 90.0 2056.6394043 0.000711331726052 0.5 0.10000000149 0.310000002384 0.130999997258 3.5 0.10000000149
1 40 58 9 1 154.0 1975.10302734 0.000965791987255 0.5 0.10000000149 0.310000002384 0.130999997258 3.5 0.10000000149
1 41 59 9 2 109.0 1973.46020508 0.00033937318949 0.5 0.10000000149 0.310000002384 0.130999997258 3.5 0.10000000149
1 41 60 9 3 90.0 1972.39929199 0.000219368186663 0.5 0.10000000149 0.310000002384 0.130999997258 3.5 0.10000000149
1 41 61 9 4 90.0 1971.17468262 0.000221205424168 0.5 0.10000000149 0.310000002384 0.130999997258 3.5 0.10000000149
1 41 62 9 5 90.0 1969.71191406 0.000298503175145 0.5 0.10000000149 0.310000002384 0.130999997258 3.5 0.10000000149
1 41 63 9 6 90.0 1967.50952148 0.000498634006362 0.5 0.10000000149 0.310000002384 0.130999997258 3.5 0.10000000149
1 41 64 9 7 109.0 1965.7677002 0.00107560527977 0.5 0.10000000149 0.310000002384 0.130999997258 3.5 0.10000000149
1 55 14 10 1 127.0 2387.3737793 0.00179556489456 0.5 0.10000000149 0.310000002384 0.130999997258 3.5 0.10000000149
1 54 15 10 2 109.0 2375.1237793 0.00185753556434 0.5 0.10000000149 0.310000002384 0.130999997258 3.5 0.10000000149
1 53 15 10 3 109.0 2366.72412109 0.0012966261711 0.5 0.10000000149 0.310000002384 0.130999997258 3.5 0.10000000149
1 52 16 10 4 127.0 2353.53759766 0.00103850488085 0.5 0.10000000149 0.310000002384 0.130999997258 3.5 0.10000000149
1 51 17 10 5 109.0 2345.46435547 0.000848472991493 0.5 0.10000000149 0.310000002384 0.130999997258 3.5 0.10000000149
1 51 18 10 6 109.0 2338.38110352 0.000916924036574 0.5 0.10000000149 0.310000002384 0.130999997258 3.5 0.10000000149
1 50 19 10 7 109.0 2330.74682617 0.00101282412652 0.5 0.10000000149 0.310000002384 0.130999997258 3.5 0.10000000149
1 50 20 10 8 90.0 2324.08935547 0.00179468246643 0.5 0.10000000149 0.310000002384 0.130999997258 3.5 0.10000000149
1 50 21 10 9 90.0 2315.26489258 0.00259645935148 0.5 0.10000000149 0.310000002384 0.130999997258 3.5 0.10000000149
1 50 22 10 10 109.0 2305.03491211 0.00329682487063 0.5 0.10000000149 0.310000002384 0.130999997258 3.5 0.10000000149
1 49 23 10 11 127.0 2285.64624023 0.00385528453626 0.5 0.10000000149 0.310000002384 0.130999997258 3.5 0.10000000149
1 48 24 10 12 127.0 2259.04785156 0.00297347945161 0.5 0.10000000149 0.310000002384 0.130999997258 3.5 0.10000000149
1 47 25 10 13 127.0 2234.50805664 0.00275879539549 0.5 0.10000000149 0.310000002384 0.130999997258 3.5 0.10000000149
1 46 26 10 14 109.0 2215.48657227 0.00187151343562 0.5 0.10000000149 0.310000002384 0.130999997258 3.5 0.10000000149
1 46 27 10 15 90.0 2204.01733398 0.00170834467281 0.5 0.10000000149 0.310000002384 0.130999997258 3.5 0.10000000149
1 46 28 10 16 90.0 2190.88476562 0.00186352385208 0.5 0.10000000149 0.310000002384 0.130999997258 3.5 0.10000000149
1 46 29 10 17 90.0 2178.50073242 0.00213979138061 0.5 0.10000000149 0.310000002384 0.130999997258 3.5 0.10000000149
1 46 30 10 18 109.0 2166.85766602 0.0018635696033 0.5 0.10000000149 0.310000002384 0.130999997258 3.5 0.10000000149
1 45 31 10 19 127.0 2151.31542969 0.00165739038493 0.5 0.10000000149 0.310000002384 0.130999997258 3.5 0.10000000149
1 44 32 10 20 127.0 2133.40039062 0.00163909653202 0.5 0.10000000149 0.310000002384 0.130999997258 3.5 0.10000000149
1 43 33 10 21 127.0 2118.38720703 0.00118755933363 0.5 0.10000000149 0.310000002384 0.130999997258 3.5 0.10000000149
1 42 34 10 22 127.0 2106.56665039 0.00111558975186 0.5 0.10000000149 0.310000002384 0.130999997258 3.5 0.10000000149
1 41 35 10 23 127.0 2092.63891602 0.0013470123522 0.5 0.10000000149 0.310000002384 0.130999997258 3.5 0.10000000149
1 53 63 11 1 90.0 2039.73974609 0.00127634569071 0.5 0.10000000149 0.310000002384 0.130999997258 3.5 0.10000000149
1 52 63 11 2 90.0 2032.23596191 0.000964528415352 0.5 0.10000000149 0.310000002384 0.130999997258 3.5 0.10000000149
1 51 63 11 3 90.0 2025.35290527 0.000909578811843 0.5 0.10000000149 0.310000002384 0.130999997258 3.5 0.10000000149
1 50 63 11 4 90.0 2018.0345459 0.00134557730053 0.5 0.10000000149 0.310000002384 0.130999997258 3.5 0.10000000149
1 49 63 11 5 90.0 2009.32116699 0.00146600138396 0.5 0.10000000149 0.310000002384 0.130999997258 3.5 0.10000000149
1 48 63 11 6 90.0 2003.76489258 0.00130911450833 0.5 0.10000000149 0.310000002384 0.130999997258 3.5 0.10000000149
1 47 63 11 7 90.0 1997.57702637 0.00104851101059 0.5 0.10000000149 0.310000002384 0.130999997258 3.5 0.10000000149
1 46 63 11 8 90.0 1991.33557129 0.00102143769618 0.5 0.10000000149 0.310000002384 0.130999997258 3.5 0.10000000149
1 45 63 11 9 90.0 1984.828125 0.00114018539898 0.5 0.10000000149 0.310000002384 0.130999997258 3.5 0.10000000149
1 44 63 11 10 90.0 1977.22973633 0.001168468385 0.5 0.10000000149 0.310000002384 0.130999997258 3.5 0.10000000149
1 43 63 11 11 90.0 1973.35876465 0.000409803004004 0.5 0.10000000149 0.310000002384 0.130999997258 3.5 0.10000000149
1 42 63 11 12 90.0 1967.51733398 0.000624486827292 0.5 0.10000000149 0.310000002384 0.130999997258 3.5 0.10000000149
1 42 64 11 13 90.0 1965.11083984 0.000826343719382 0.5 0.10000000149 0.310000002384 0.130999997258 3.5 0.10000000149
1 42 65 12 1 154.0 1962.92370605 0.00163660210092 0.5 0.10000000149 0.310000002384 0.130999997258 3.5 0.10000000149
1 42 66 12 2 90.0 1961.2175293 0.00216297293082 0.5 0.10000000149 0.310000002384 0.130999997258 3.5 0.10000000149
1 42 67 12 3 90.0 1960.64904785 0.00229894113727 0.5 0.10000000149 0.310000002384 0.130999997258 3.5 0.10000000149
1 42 68 12 4 90.0 1959.1484375 0.00158158608247 0.5 0.10000000149 0.310000002384 0.130999997258 3.5 0.10000000149
1 42 69 12 5 90.0 1958.51708984 0.000469109741971 0.5 0.10000000149 0.310000002384 0.130999997258 3.5 0.10000000149
1 42 70 12 6 109.0 1957.38903809 0.000405107362894 0.5 0.10000000149 0.310000002384 0.130999997258 3.5 0.10000000149
1 43 71 12 7 109.0 1950.02270508 0.000981732155196 0.5 0.10000000149 0.310000002384 0.130999997258 3.5 0.10000000149
1 43 72 12 8 90.0 1947.07348633 0.00052491464885 0.5 0.10000000149 0.310000002384 0.130999997258 3.5 0.10000000149
1 43 73 12 9 90.0 1944.00671387 0.000488897087052 0.5 0.10000000149 0.310000002384 0.130999997258 3.5 0.10000000149
1 43 74 13 1 154.0 1941.00012207 0.00062562013045 0.5 0.10000000149 0.310000002384 0.130999997258 3.5 0.10000000149
1 43 75 13 2 109.0 1938.42919922 0.000869137467816 0.5 0.10000000149 0.310000002384 0.130999997258 3.5 0.10000000149
1 44 76 13 3 109.0 1936.39709473 0.000476540270029 0.5 0.10000000149 0.310000002384 0.130999997258 3.5 0.10000000149
1 44 77 13 4 90.0 1934.80297852 0.000406127161114 0.5 0.10000000149 0.310000002384 0.130999997258 3.5 0.10000000149
1 44 78 14 1 154.0 1933.2701416 0.000501341826748 0.5 0.10000000149 0.310000002384 0.130999997258 3.5 0.10000000149
1 44 79 14 2 90.0 1931.68017578 0.000412613153458 0.5 0.10000000149 0.310000002384 0.130999997258 3.5 0.10000000149
1 44 80 14 3 90.0 1929.43994141 0.000466589961434 0.5 0.10000000149 0.310000002384 0.130999997258 3.5 0.10000000149
1 43 80 14 4 109.0 1929.44372559 0.000790415098891 0.5 0.10000000149 0.310000002384 0.130999997258 3.5 0.10000000149
1 61 76 15 1 90.0 2063.98901367 0.0015131579712 0.5 0.10000000149 0.310000002384 0.130999997258 3.5 0.10000000149
1 60 76 15 2 90.0 2053.73876953 0.00171583564952 0.5 0.10000000149 0.310000002384 0.130999997258 3.5 0.10000000149
1 59 76 15 3 90.0 2042.4987793 0.0014857549686 0.5 0.10000000149 0.310000002384 0.130999997258 3.5 0.10000000149
1 58 76 15 4 90.0 2030.03710938 0.00159136380535 0.5 0.10000000149 0.310000002384 0.130999997258 3.5 0.10000000149
1 57 76 15 5 109.0 2018.23657227 0.00179686769843 0.5 0.10000000149 0.310000002384 0.130999997258 3.5 0.10000000149
1 56 75 15 6 109.0 2006.2578125 0.00159558095038 0.5 0.10000000149 0.310000002384 0.130999997258 3.5 0.10000000149
1 55 75 15 7 90.0 1998.57751465 0.00101867027115 0.5 0.10000000149 0.310000002384 0.130999997258 3.5 0.10000000149
1 54 75 15 8 90.0 1993.4822998 0.000818222993985 0.5 0.10000000149 0.310000002384 0.130999997258 3.5 0.10000000149
1 53 75 15 9 90.0 1987.12683105 0.000918240752071 0.5 0.10000000149 0.310000002384 0.130999997258 3.5 0.10000000149
1 52 75 15 10 90.0 1979.11889648 0.000902284053154 0.5 0.10000000149 0.310000002384 0.130999997258 3.5 0.10000000149
1 51 75 15 11 90.0 1972.25341797 0.000890963769052 0.5 0.10000000149 0.310000002384 0.130999997258 3.5 0.10000000149
1 50 75 15 12 90.0 1964.9810791 0.000831882178318 0.5 0.10000000149 0.310000002384 0.130999997258 3.5 0.10000000149
1 49 75 15 13 109.0 1958.77502441 0.00105936545879 0.5 0.10000000149 0.310000002384 0.130999997258 3.5 0.10000000149
1 48 76 15 14 109.0 1951.31433105 0.00177281920332 0.5 0.10000000149 0.310000002384 0.130999997258 3.5 0.10000000149
1 47 76 15 15 109.0 1947.42272949 0.000815952604171 0.5 0.10000000149 0.310000002384 0.130999997258 3.5 0.10000000149
1 46 77 15 16 109.0 1940.49353027 0.000724806159269 0.5 0.10000000149 0.310000002384 0.130999997258 3.5 0.10000000149
1 45 77 15 17 109.0 1937.90197754 0.000458702706965 0.5 0.10000000149 0.310000002384 0.130999997258 3.5 0.10000000149
15 0 0
1 1 13 0 0 0 0 0 0.0399999991059 
3.0 
3.0 
2 1 9 0 0 0 0 0 0.0399999991059 
3.0 
3.0 
3 1 4 0 0 0 0 0 0.0399999991059 
3.0 
3.0 
4 1 9 0 0 0 0 0 0.0399999991059 
3.0 
3.0 
5 1 3 0 0 0 0 0 0.0399999991059 
3.0 
3.0 
6 1 4 0 0 0 0 0 0.0399999991059 
3.0 
3.0 
7 1 5 0 0 0 0 0 0.0399999991059 
3.0 
3.0 
8 1 3 0 0 0 0 0 0.0399999991059 
3.0 
3.0 
9 1 12 0 0 0 0 0 0.0399999991059 
3.0 
3.0 
10 1 5 0 0 0 0 0 0.0399999991059 
3.0 
3.0 
11 1 12 0 0 0 0 0 0.0399999991059 
3.0 
3.0 
12 1 13 0 0 0 0 0 0.0399999991059 
3.0 
3.0 
13 1 14 0 0 0 0 0 0.0399999991059 
3.0 
3.0 
14 1 0 0 0 0 0 0 0.0399999991059 
3.0 
3.0 
15 1 14 0 0 0 0 0 0.0399999991059 
3.0 
3.0 
-1 0 0
