# UPW package for MODFLOW-NWT generated by Flopy 3.3.6
         0    -1E+03         0         0 
         1
         0
   1.000000E+00
         0
         0
INTERNAL               1 (149E15.6) -1 #hk layer 1                    
   1.750000E-02   1.750000E-02   1.750000E-02   1.750000E-02   1.750000E-02   1.750000E-02   1.750000E-02   1.750000E-02   1.750000E-02   1.750000E-02   1.750000E-02   1.750000E-02   1.750000E-02   1.750000E-02   1.750000E-02   1.750000E-02   1.750000E-02   1.750000E-02   1.750000E-02   1.750000E-02   1.750000E-02   1.750000E-02   1.750000E-02   1.750000E-02   1.750000E-02   1.750000E-02   1.750000E-02   1.750000E-02   1.750000E-02   1.750000E-02   1.750000E-02   1.750000E-02   1.750000E-02   1.750000E-02   1.750000E-02   1.750000E-02   1.750000E-02   1.750000E-02   1.750000E-02   1.750000E-02   1.750000E-02   1.750000E-02   1.750000E-02   1.750000E-02   1.750000E-02   1.750000E-02   1.750000E-02   1.750000E-02   1.750000E-02   1.750000E-02   1.750000E-02   1.750000E-02   1.750000E-02   1.750000E-02   1.750000E-02   1.750000E-02   1.750000E-02   1.750000E-02   1.750000E-02   1.750000E-02   1.750000E-02   1.750000E-02   1.750000E-02   1.750000E-02   1.750000E-02   1.750000E-02   1.750000E-02   1.750000E-02   1.750000E-02   1.750000E-02   1.750000E-02   1.750000E-02   1.750000E-02   1.750000E-02   1.750000E-02   1.750000E-02   1.750000E-02   1.750000E-02   1.750000E-02   1.750000E-02   1.750000E-02   1.750000E-02   1.750000E-02   1.750000E-02   1.750000E-02   1.750000E-02   1.750000E-02   1.750000E-02   1.750000E-02   1.750000E-02   1.750000E-02   1.750000E-02   1.750000E-02   1.750000E-02   1.750000E-02   1.750000E-02   1.750000E-02   1.750000E-02   1.750000E-02   1.750000E-02   1.750000E-02   1.750000E-02   1.750000E-02   1.750000E-02   1.750000E-02   1.750000E-02   1.750000E-02   1.750000E-02   1.750000E-02   1.750000E-02   1.750000E-02   1.750000E-02   1.750000E-02   1.750000E-02   1.750000E-02   1.750000E-02   1.750000E-02   1.750000E-02   1.750000E-02   1.750000E-02   1.750000E-02   1.750000E-02   1.750000E-02   1.750000E-02   1.750000E-02   1.750000E-02   1.750000E-02   1.750000E-02   1.750000E-02   1.750000E-02   1.750000E-02   1.750000E-02   1.750000E-02   1.750000E-02   1.750000E-02   1.750000E-02   1.750000E-02   1.750000E-02   1.750000E-02   1.750000E-02   1.750000E-02   1.750000E-02   1.750000E-02   1.750000E-02   1.750000E-02   1.750000E-02   1.750000E-02   1.750000E-02   1.750000E-02
   1.750000E-02   1.750000E-02   1.750000E-02   1.750000E-02   1.750000E-02   1.750000E-02   1.750000E-02   1.750000E-02   1.750000E-02   1.750000E-02   1.750000E-02   1.750000E-02   1.750000E-02   1.750000E-02   1.750000E-02   1.750000E-02   1.750000E-02   1.750000E-02   1.750000E-02   1.750000E-02   1.750000E-02   1.750000E-02   1.750000E-02   1.750000E-02   1.750000E-02   1.750000E-02   1.750000E-02   1.750000E-02   1.750000E-02   1.750000E-02   1.750000E-02   1.750000E-02   1.750000E-02   1.750000E-02   1.750000E-02   1.750000E-02   1.750000E-02   1.750000E-02   1.750000E-02   1.750000E-02   1.750000E-02   1.750000E-02   1.750000E-02   1.750000E-02   1.750000E-02   1.750000E-02   1.750000E-02   1.750000E-02   1.750000E-02   1.750000E-02   1.750000E-02   1.750000E-02   1.750000E-02   1.750000E-02   1.750000E-02   1.750000E-02   1.750000E-02   1.750000E-02   1.750000E-02   1.750000E-02   1.750000E-02   1.750000E-02   1.750000E-02   1.750000E-02   1.750000E-02   1.750000E-02   1.750000E-02   1.750000E-02   1.750000E-02   1.750000E-02   1.750000E-02   1.750000E-02   1.750000E-02   1.750000E-02   1.750000E-02   1.750000E-02   1.750000E-02   1.750000E-02   1.750000E-02   1.750000E-02   1.750000E-02   1.750000E-02   1.750000E-02   1.750000E-02   1.750000E-02   1.750000E-02   1.750000E-02   1.750000E-02   1.750000E-02   1.750000E-02   1.750000E-02   1.750000E-02   1.750000E-02   1.750000E-02   1.750000E-02   1.750000E-02   1.750000E-02   1.750000E-02   1.750000E-02   1.750000E-02   1.750000E-02   1.750000E-02   1.750000E-02   1.750000E-02   1.750000E-02   1.750000E-02   1.750000E-02   1.750000E-02   1.750000E-02   1.750000E-02   1.750000E-02   1.750000E-02   1.750000E-02   1.750000E-02   1.750000E-02   1.750000E-02   1.750000E-02   1.750000E-02   1.750000E-02   1.750000E-02   1.750000E-02   1.750000E-02   1.750000E-02   1.750000E-02   1.750000E-02   1.750000E-02   1.750000E-02   1.750000E-02   1.750000E-02   1.750000E-02   1.750000E-02   1.750000E-02   1.750000E-02   1.750000E-02   1.750000E-02   1.750000E-02   1.750000E-02   1.750000E-02   1.750000E-02   1.750000E-02   1.750000E-02   1.750000E-02   1.750000E-02   1.750000E-02   1.750000E-02   1.750000E-02   1.750000E-02   1.750000E-02   1.750000E-02
   1.750000E-02   1.750000E-02   1.750000E-02   1.750000E-02   1.750000E-02   1.750000E-02   1.750000E-02   1.750000E-02   1.750000E-02   1.750000E-02   1.750000E-02   1.750000E-02   1.750000E-02   1.750000E-02   1.750000E-02   1.750000E-02   1.750000E-02   1.750000E-02   1.750000E-02   1.750000E-02   1.750000E-02   1.750000E-02   1.750000E-02   1.750000E-02   1.750000E-02   1.750000E-02   1.750000E-02   1.750000E-02   1.750000E-02   1.750000E-02   1.750000E-02   1.750000E-02   1.750000E-02   1.750000E-02   1.750000E-02   1.750000E-02   1.750000E-02   1.750000E-02   1.750000E-02   1.750000E-02   1.750000E-02   1.750000E-02   1.750000E-02   1.750000E-02   1.750000E-02   1.750000E-02   1.750000E-02   1.750000E-02   1.750000E-02   1.750000E-02   1.750000E-02   1.750000E-02   1.750000E-02   1.750000E-02   1.750000E-02   1.750000E-02   1.750000E-02   1.750000E-02   1.750000E-02   1.750000E-02   1.750000E-02   1.750000E-02   1.750000E-02   1.750000E-02   1.750000E-02   1.750000E-02   1.750000E-02   1.750000E-02   1.750000E-02   1.750000E-02   1.750000E-02   1.750000E-02   1.750000E-02   1.750000E-02   1.750000E-02   1.750000E-02   1.750000E-02   1.750000E-02   1.750000E-02   1.750000E-02   1.750000E-02   1.750000E-02   1.750000E-02   1.750000E-02   1.750000E-02   1.750000E-02   1.750000E-02   1.750000E-02   1.750000E-02   1.750000E-02   1.750000E-02   1.750000E-02   1.750000E-02   1.750000E-02   1.750000E-02   1.750000E-02   1.750000E-02   1.750000E-02   1.750000E-02   1.750000E-02   1.750000E-02   1.750000E-02   1.750000E-02   1.750000E-02   1.750000E-02   1.750000E-02   1.750000E-02   1.750000E-02   1.750000E-02   1.750000E-02   1.750000E-02   1.750000E-02   1.750000E-02   1.750000E-02   1.750000E-02   1.750000E-02   1.750000E-02   1.750000E-02   1.750000E-02   1.750000E-02   1.750000E-02   1.750000E-02   1.750000E-02   1.750000E-02   1.750000E-02   1.750000E-02   1.750000E-02   1.750000E-02   1.750000E-02   1.750000E-02   1.750000E-02   1.750000E-02   1.750000E-02   1.750000E-02   1.750000E-02   1.750000E-02   1.750000E-02   1.750000E-02   1.750000E-02   1.750000E-02   1.750000E-02   1.750000E-02   1.750000E-02   1.750000E-02   1.750000E-02   1.750000E-02   1.750000E-02   1.750000E-02   1.750000E-02
   1.750000E-02   1.750000E-02   1.750000E-02   1.750000E-02   1.750000E-02   1.750000E-02   1.750000E-02   1.750000E-02   1.750000E-02   1.750000E-02   1.750000E-02   1.750000E-02   1.750000E-02   1.750000E-02   1.750000E-02   1.750000E-02   1.750000E-02   1.750000E-02   1.750000E-02   1.750000E-02   1.750000E-02   1.750000E-02   1.750000E-02   1.750000E-02   1.750000E-02   1.750000E-02   1.750000E-02   1.750000E-02   1.750000E-02   1.750000E-02   1.750000E-02   1.750000E-02   1.750000E-02   1.750000E-02   1.750000E-02   1.750000E-02   1.750000E-02   1.750000E-02   1.750000E-02   1.750000E-02   1.750000E-02   1.750000E-02   1.750000E-02   1.750000E-02   1.750000E-02   1.750000E-02   1.750000E-02   1.750000E-02   1.750000E-02   1.750000E-02   1.750000E-02   1.750000E-02   1.750000E-02   1.750000E-02   1.750000E-02   1.750000E-02   1.750000E-02   1.750000E-02   1.750000E-02   1.750000E-02   1.750000E-02   1.750000E-02   1.750000E-02   1.750000E-02   1.750000E-02   1.750000E-02   1.750000E-02   1.750000E-02   1.750000E-02   1.750000E-02   1.750000E-02   1.750000E-02   1.750000E-02   1.750000E-02   1.750000E-02   1.750000E-02   1.750000E-02   1.750000E-02   1.750000E-02   1.750000E-02   1.750000E-02   1.750000E-02   1.750000E-02   1.750000E-02   1.750000E-02   1.750000E-02   1.750000E-02   1.750000E-02   1.750000E-02   1.750000E-02   1.750000E-02   1.750000E-02   1.750000E-02   1.750000E-02   1.750000E-02   1.750000E-02   1.750000E-02   1.750000E-02   1.750000E-02   1.750000E-02   1.750000E-02   1.750000E-02   1.750000E-02   1.750000E-02   1.750000E-02   1.750000E-02   1.750000E-02   1.750000E-02   1.750000E-02   1.750000E-02   1.750000E-02   1.750000E-02   1.750000E-02   1.750000E-02   1.750000E-02   1.750000E-02   1.750000E-02   1.750000E-02   1.750000E-02   1.750000E-02   1.750000E-02   1.750000E-02   1.750000E-02   1.750000E-02   1.750000E-02   1.750000E-02   1.750000E-02   1.750000E-02   1.750000E-02   1.750000E-02   1.750000E-02   1.750000E-02   1.750000E-02   1.750000E-02   1.750000E-02   1.750000E-02   1.750000E-02   1.750000E-02   1.750000E-02   1.750000E-02   1.750000E-02   1.750000E-02   1.750000E-02   1.750000E-02   1.750000E-02   1.750000E-02   1.750000E-02   1.750000E-02   1.750000E-02
   1.750000E-02   1.750000E-02   1.750000E-02   1.750000E-02   1.750000E-02   1.750000E-02   1.750000E-02   1.750000E-02   1.750000E-02   1.750000E-02   1.750000E-02   1.750000E-02   1.750000E-02   1.750000E-02   1.750000E-02   1.750000E-02   1.750000E-02   1.750000E-02   1.750000E-02   1.750000E-02   1.750000E-02   1.750000E-02   1.750000E-02   1.750000E-02   1.750000E-02   1.750000E-02   1.750000E-02   1.750000E-02   1.750000E-02   1.750000E-02   1.750000E-02   1.750000E-02   1.750000E-02   1.750000E-02   1.750000E-02   1.750000E-02   1.750000E-02   1.750000E-02   1.750000E-02   1.750000E-02   1.750000E-02   1.750000E-02   1.750000E-02   1.750000E-02   1.750000E-02   1.750000E-02   1.750000E-02   1.750000E-02   1.750000E-02   1.750000E-02   1.750000E-02   1.750000E-02   1.750000E-02   1.750000E-02   1.750000E-02   1.750000E-02   1.750000E-02   1.750000E-02   1.750000E-02   1.750000E-02   1.750000E-02   1.750000E-02   1.750000E-02   1.750000E-02   1.750000E-02   1.750000E-02   1.750000E-02   1.750000E-02   1.750000E-02   1.750000E-02   1.750000E-02   1.750000E-02   1.750000E-02   1.750000E-02   1.750000E-02   1.750000E-02   1.750000E-02   1.750000E-02   1.750000E-02   1.750000E-02   1.750000E-02   1.750000E-02   1.750000E-02   1.750000E-02   1.750000E-02   1.750000E-02   1.750000E-02   1.750000E-02   1.750000E-02   1.750000E-02   1.750000E-02   1.750000E-02   1.750000E-02   1.750000E-02   1.750000E-02   1.750000E-02   1.750000E-02   1.750000E-02   1.750000E-02   1.750000E-02   1.750000E-02   1.750000E-02   1.750000E-02   1.750000E-02   1.750000E-02   1.750000E-02   1.750000E-02   1.750000E-02   1.750000E-02   1.750000E-02   1.750000E-02   1.750000E-02   1.750000E-02   1.750000E-02   1.750000E-02   1.750000E-02   1.750000E-02   1.750000E-02   1.750000E-02   1.750000E-02   1.750000E-02   1.750000E-02   1.750000E-02   1.750000E-02   1.750000E-02   1.750000E-02   1.750000E-02   1.750000E-02   1.750000E-02   1.750000E-02   1.750000E-02   1.750000E-02   1.750000E-02   1.750000E-02   1.750000E-02   1.750000E-02   1.750000E-02   1.750000E-02   1.750000E-02   1.750000E-02   1.750000E-02   1.750000E-02   1.750000E-02   1.750000E-02   1.750000E-02   1.750000E-02   1.750000E-02   1.750000E-02   1.750000E-02
   1.750000E-02   1.750000E-02   1.750000E-02   1.750000E-02   1.750000E-02   1.750000E-02   1.750000E-02   1.750000E-02   1.750000E-02   1.750000E-02   1.750000E-02   1.750000E-02   1.750000E-02   1.750000E-02   1.750000E-02   1.750000E-02   1.750000E-02   1.750000E-02   1.750000E-02   1.750000E-02   1.750000E-02   1.750000E-02   1.750000E-02   1.750000E-02   1.750000E-02   1.750000E-02   1.750000E-02   1.750000E-02   1.750000E-02   1.750000E-02   1.750000E-02   1.750000E-02   1.750000E-02   1.750000E-02   1.750000E-02   1.750000E-02   1.750000E-02   1.750000E-02   1.750000E-02   1.750000E-02   1.750000E-02   1.750000E-02   1.750000E-02   1.750000E-02   1.750000E-02   1.750000E-02   1.750000E-02   1.750000E-02   1.750000E-02   1.750000E-02   1.750000E-02   1.750000E-02   1.750000E-02   1.750000E-02   1.750000E-02   1.750000E-02   1.750000E-02   1.750000E-02   1.750000E-02   1.750000E-02   1.750000E-02   1.750000E-02   1.750000E-02   1.750000E-02   1.750000E-02   1.750000E-02   1.750000E-02   1.750000E-02   1.750000E-02   1.750000E-02   1.750000E-02   1.750000E-02   1.750000E-02   1.750000E-02   1.750000E-02   1.750000E-02   1.750000E-02   1.750000E-02   1.750000E-02   1.750000E-02   1.750000E-02   1.750000E-02   1.750000E-02   1.750000E-02   1.750000E-02   1.750000E-02   1.750000E-02   1.750000E-02   1.750000E-02   1.750000E-02   1.750000E-02   1.750000E-02   1.750000E-02   1.750000E-02   1.750000E-02   1.750000E-02   1.750000E-02   1.750000E-02   1.750000E-02   1.750000E-02   1.750000E-02   1.750000E-02   1.750000E-02   1.750000E-02   1.750000E-02   1.750000E-02   1.750000E-02   1.750000E-02   1.750000E-02   1.750000E-02   1.750000E-02   1.750000E-02   1.750000E-02   1.750000E-02   1.750000E-02   1.750000E-02   1.750000E-02   1.750000E-02   1.750000E-02   1.750000E-02   1.750000E-02   1.750000E-02   1.750000E-02   1.750000E-02   1.750000E-02   1.750000E-02   1.750000E-02   1.750000E-02   1.750000E-02   1.750000E-02   1.750000E-02   1.750000E-02   1.750000E-02   1.750000E-02   1.750000E-02   1.750000E-02   1.750000E-02   1.750000E-02   1.750000E-02   1.750000E-02   1.750000E-02   1.750000E-02   1.750000E-02   1.750000E-02   1.750000E-02   1.750000E-02   1.750000E-02   1.750000E-02   1.750000E-02
   1.750000E-02   1.750000E-02   1.750000E-02   1.750000E-02   1.750000E-02   1.750000E-02   1.750000E-02   1.750000E-02   1.750000E-02   1.750000E-02   1.750000E-02   1.750000E-02   1.750000E-02   1.750000E-02   1.750000E-02   1.750000E-02   1.750000E-02   1.750000E-02   1.750000E-02   1.750000E-02   1.750000E-02   1.750000E-02   1.750000E-02   1.750000E-02   1.750000E-02   1.750000E-02   1.750000E-02   1.750000E-02   1.750000E-02   1.750000E-02   1.750000E-02   1.750000E-02   1.750000E-02   1.750000E-02   1.750000E-02   1.750000E-02   1.750000E-02   1.750000E-02   1.750000E-02   1.750000E-02   1.750000E-02   1.750000E-02   1.750000E-02   1.750000E-02   1.750000E-02   1.750000E-02   1.750000E-02   1.750000E-02   1.750000E-02   1.750000E-02   1.750000E-02   1.750000E-02   1.750000E-02   1.750000E-02   1.750000E-02   1.750000E-02   1.750000E-02   1.750000E-02   1.750000E-02   1.750000E-02   1.750000E-02   1.750000E-02   1.750000E-02   1.750000E-02   1.750000E-02   1.750000E-02   1.750000E-02   1.750000E-02   1.750000E-02   1.750000E-02   1.750000E-02   1.750000E-02   1.750000E-02   1.750000E-02   1.750000E-02   1.750000E-02   1.750000E-02   1.750000E-02   1.750000E-02   1.750000E-02   1.750000E-02   1.750000E-02   1.750000E-02   1.750000E-02   1.750000E-02   1.750000E-02   1.750000E-02   1.750000E-02   1.750000E-02   1.750000E-02   1.750000E-02   1.750000E-02   1.750000E-02   1.750000E-02   1.750000E-02   1.750000E-02   1.750000E-02   1.750000E-02   1.750000E-02   1.750000E-02   1.750000E-02   1.750000E-02   1.750000E-02   1.750000E-02   1.750000E-02   1.750000E-02   1.750000E-02   1.750000E-02   1.750000E-02   1.750000E-02   1.750000E-02   1.750000E-02   1.750000E-02   1.750000E-02   1.750000E-02   1.750000E-02   1.750000E-02   1.750000E-02   1.750000E-02   1.750000E-02   1.750000E-02   1.750000E-02   1.750000E-02   1.750000E-02   1.750000E-02   1.750000E-02   1.750000E-02   1.750000E-02   1.750000E-02   1.750000E-02   1.750000E-02   1.750000E-02   1.750000E-02   1.750000E-02   1.750000E-02   1.750000E-02   1.750000E-02   1.750000E-02   1.750000E-02   1.750000E-02   1.750000E-02   1.750000E-02   1.750000E-02   1.750000E-02   1.750000E-02   1.750000E-02   1.750000E-02   1.750000E-02   1.750000E-02
   1.750000E-02   1.750000E-02   1.750000E-02   1.750000E-02   1.750000E-02   1.750000E-02   1.750000E-02   1.750000E-02   1.750000E-02   1.750000E-02   1.750000E-02   1.750000E-02   1.750000E-02   1.750000E-02   1.750000E-02   1.750000E-02   1.750000E-02   1.750000E-02   1.750000E-02   1.750000E-02   1.750000E-02   1.750000E-02   1.750000E-02   1.750000E-02   1.750000E-02   1.750000E-02   1.750000E-02   1.750000E-02   1.750000E-02   1.750000E-02   1.750000E-02   1.750000E-02   1.750000E-02   1.750000E-02   1.750000E-02   1.750000E-02   1.750000E-02   1.750000E-02   1.750000E-02   1.750000E-02   1.750000E-02   1.750000E-02   1.750000E-02   1.750000E-02   1.750000E-02   1.750000E-02   1.750000E-02   1.750000E-02   1.750000E-02   1.750000E-02   1.750000E-02   1.750000E-02   1.750000E-02   1.750000E-02   1.750000E-02   1.750000E-02   1.750000E-02   1.750000E-02   1.750000E-02   1.750000E-02   1.750000E-02   1.750000E-02   1.750000E-02   1.750000E-02   1.750000E-02   1.750000E-02   1.750000E-02   1.750000E-02   1.750000E-02   1.750000E-02   1.750000E-02   1.750000E-02   1.750000E-02   1.750000E-02   1.750000E-02   1.750000E-02   1.750000E-02   1.750000E-02   1.750000E-02   1.750000E-02   1.750000E-02   1.750000E-02   1.750000E-02   1.750000E-02   1.750000E-02   1.750000E-02   1.750000E-02   1.750000E-02   1.750000E-02   1.750000E-02   1.750000E-02   1.750000E-02   1.750000E-02   1.750000E-02   1.750000E-02   1.750000E-02   1.750000E-02   1.750000E-02   1.750000E-02   1.750000E-02   1.750000E-02   1.750000E-02   1.750000E-02   1.750000E-02   1.750000E-02   1.750000E-02   1.750000E-02   1.750000E-02   1.750000E-02   1.750000E-02   1.750000E-02   1.750000E-02   1.750000E-02   1.750000E-02   1.750000E-02   1.750000E-02   1.750000E-02   1.750000E-02   1.750000E-02   1.750000E-02   1.750000E-02   1.750000E-02   1.750000E-02   1.750000E-02   1.750000E-02   1.750000E-02   1.750000E-02   1.750000E-02   1.750000E-02   1.750000E-02   1.750000E-02   1.750000E-02   1.750000E-02   1.750000E-02   1.750000E-02   1.750000E-02   1.750000E-02   1.750000E-02   1.750000E-02   1.750000E-02   1.750000E-02   1.750000E-02   1.750000E-02   1.750000E-02   1.750000E-02   1.750000E-02   1.750000E-02   1.750000E-02   1.750000E-02
   1.750000E-02   1.750000E-02   1.750000E-02   1.750000E-02   1.750000E-02   1.750000E-02   1.750000E-02   1.750000E-02   1.750000E-02   1.750000E-02   1.750000E-02   1.750000E-02   1.750000E-02   1.750000E-02   1.750000E-02   1.750000E-02   1.750000E-02   1.750000E-02   1.750000E-02   1.750000E-02   1.750000E-02   1.750000E-02   1.750000E-02   1.750000E-02   1.750000E-02   1.750000E-02   1.750000E-02   1.750000E-02   1.750000E-02   1.750000E-02   1.750000E-02   1.750000E-02   1.750000E-02   1.750000E-02   1.750000E-02   1.750000E-02   1.750000E-02   1.750000E-02   1.750000E-02   1.750000E-02   1.750000E-02   1.750000E-02   1.750000E-02   1.750000E-02   1.750000E-02   1.750000E-02   1.750000E-02   1.750000E-02   1.750000E-02   1.750000E-02   1.750000E-02   1.750000E-02   1.750000E-02   1.750000E-02   1.750000E-02   1.750000E-02   1.750000E-02   1.750000E-02   1.750000E-02   1.750000E-02   1.750000E-02   1.750000E-02   1.750000E-02   1.750000E-02   1.750000E-02   1.750000E-02   1.750000E-02   1.750000E-02   1.750000E-02   1.750000E-02   1.750000E-02   1.750000E-02   1.750000E-02   1.750000E-02   1.750000E-02   1.750000E-02   1.750000E-02   1.750000E-02   1.750000E-02   1.750000E-02   1.750000E-02   1.750000E-02   1.750000E-02   1.750000E-02   1.750000E-02   1.750000E-02   1.750000E-02   1.750000E-02   1.750000E-02   1.750000E-02   1.750000E-02   1.750000E-02   1.750000E-02   1.750000E-02   1.750000E-02   1.750000E-02   1.750000E-02   1.750000E-02   1.750000E-02   1.750000E-02   1.750000E-02   1.750000E-02   1.750000E-02   1.750000E-02   1.750000E-02   1.750000E-02   1.750000E-02   1.750000E-02   1.750000E-02   1.750000E-02   1.750000E-02   1.750000E-02   1.750000E-02   1.750000E-02   1.750000E-02   1.750000E-02   1.750000E-02   1.750000E-02   1.750000E-02   1.750000E-02   1.750000E-02   1.750000E-02   1.750000E-02   1.750000E-02   1.750000E-02   1.750000E-02   1.750000E-02   1.750000E-02   1.750000E-02   1.750000E-02   1.750000E-02   1.750000E-02   1.750000E-02   1.750000E-02   1.750000E-02   1.750000E-02   1.750000E-02   1.750000E-02   1.750000E-02   1.750000E-02   1.750000E-02   1.750000E-02   1.750000E-02   1.750000E-02   1.750000E-02   1.750000E-02   1.750000E-02   1.750000E-02   1.750000E-02
   1.750000E-02   1.750000E-02   1.750000E-02   1.750000E-02   1.750000E-02   1.750000E-02   1.750000E-02   1.750000E-02   1.750000E-02   1.750000E-02   1.750000E-02   1.750000E-02   1.750000E-02   1.750000E-02   1.750000E-02   1.750000E-02   1.750000E-02   1.750000E-02   1.750000E-02   1.750000E-02   1.750000E-02   1.750000E-02   1.750000E-02   1.750000E-02   1.750000E-02   1.750000E-02   1.750000E-02   1.750000E-02   1.750000E-02   1.750000E-02   1.750000E-02   1.750000E-02   1.750000E-02   1.750000E-02   1.750000E-02   1.750000E-02   1.750000E-02   1.750000E-02   1.750000E-02   1.750000E-02   1.750000E-02   1.750000E-02   1.750000E-02   1.750000E-02   1.750000E-02   1.750000E-02   1.750000E-02   1.750000E-02   1.750000E-02   1.750000E-02   1.750000E-02   1.750000E-02   1.750000E-02   1.750000E-02   1.750000E-02   1.750000E-02   1.750000E-02   1.750000E-02   1.750000E-02   1.750000E-02   1.750000E-02   1.750000E-02   1.750000E-02   1.750000E-02   1.750000E-02   1.750000E-02   1.750000E-02   1.750000E-02   1.750000E-02   1.750000E-02   1.750000E-02   1.750000E-02   1.750000E-02   1.750000E-02   1.750000E-02   1.750000E-02   1.750000E-02   1.750000E-02   1.750000E-02   1.750000E-02   1.750000E-02   1.750000E-02   1.750000E-02   1.750000E-02   1.750000E-02   1.750000E-02   1.750000E-02   1.750000E-02   1.750000E-02   1.750000E-02   1.750000E-02   1.750000E-02   1.750000E-02   1.750000E-02   1.750000E-02   1.750000E-02   1.750000E-02   1.750000E-02   1.750000E-02   1.750000E-02   1.750000E-02   1.750000E-02   1.750000E-02   1.750000E-02   1.750000E-02   1.750000E-02   1.750000E-02   1.750000E-02   1.750000E-02   1.750000E-02   1.750000E-02   1.750000E-02   1.750000E-02   1.750000E-02   1.750000E-02   1.750000E-02   1.750000E-02   1.750000E-02   1.750000E-02   1.750000E-02   1.750000E-02   1.750000E-02   1.750000E-02   1.750000E-02   1.750000E-02   1.750000E-02   1.750000E-02   1.750000E-02   1.750000E-02   1.750000E-02   1.750000E-02   1.750000E-02   1.750000E-02   1.750000E-02   1.750000E-02   1.750000E-02   1.750000E-02   1.750000E-02   1.750000E-02   1.750000E-02   1.750000E-02   1.750000E-02   1.750000E-02   1.750000E-02   1.750000E-02   1.750000E-02   1.750000E-02   1.750000E-02   1.750000E-02
   1.750000E-02   1.750000E-02   1.750000E-02   1.750000E-02   1.750000E-02   1.750000E-02   1.750000E-02   1.750000E-02   1.750000E-02   1.750000E-02   1.750000E-02   1.750000E-02   1.750000E-02   1.750000E-02   1.750000E-02   1.750000E-02   1.750000E-02   1.750000E-02   1.750000E-02   1.750000E-02   1.750000E-02   1.750000E-02   1.750000E-02   1.750000E-02   1.750000E-02   1.750000E-02   1.750000E-02   1.750000E-02   1.750000E-02   1.750000E-02   1.750000E-02   1.750000E-02   1.750000E-02   1.750000E-02   1.750000E-02   1.750000E-02   1.750000E-02   1.750000E-02   1.750000E-02   1.750000E-02   1.750000E-02   1.750000E-02   1.750000E-02   1.750000E-02   1.750000E-02   1.750000E-02   1.750000E-02   1.750000E-02   1.750000E-02   1.750000E-02   1.750000E-02   1.750000E-02   1.750000E-02   1.750000E-02   1.750000E-02   1.750000E-02   1.750000E-02   1.750000E-02   1.750000E-02   1.750000E-02   1.750000E-02   1.750000E-02   1.750000E-02   1.750000E-02   1.750000E-02   1.750000E-02   1.750000E-02   1.750000E-02   1.750000E-02   1.750000E-02   1.750000E-02   1.750000E-02   1.750000E-02   1.750000E-02   1.750000E-02   1.750000E-02   1.750000E-02   1.750000E-02   1.750000E-02   1.750000E-02   1.750000E-02   1.750000E-02   1.750000E-02   1.750000E-02   1.750000E-02   1.750000E-02   1.750000E-02   1.750000E-02   1.750000E-02   1.750000E-02   1.750000E-02   1.750000E-02   1.750000E-02   1.750000E-02   1.750000E-02   1.750000E-02   1.750000E-02   1.750000E-02   1.750000E-02   1.750000E-02   1.750000E-02   1.750000E-02   1.750000E-02   1.750000E-02   1.750000E-02   1.750000E-02   1.750000E-02   1.750000E-02   1.750000E-02   1.750000E-02   1.750000E-02   1.750000E-02   1.750000E-02   1.750000E-02   1.750000E-02   1.750000E-02   1.750000E-02   1.750000E-02   1.750000E-02   1.750000E-02   1.750000E-02   1.750000E-02   1.750000E-02   1.750000E-02   1.750000E-02   1.750000E-02   1.750000E-02   1.750000E-02   1.750000E-02   1.750000E-02   1.750000E-02   1.750000E-02   1.750000E-02   1.750000E-02   1.750000E-02   1.750000E-02   1.750000E-02   1.750000E-02   1.750000E-02   1.750000E-02   1.750000E-02   1.750000E-02   1.750000E-02   1.750000E-02   1.750000E-02   1.750000E-02   1.750000E-02   1.750000E-02   1.750000E-02
   1.750000E-02   1.750000E-02   1.750000E-02   1.750000E-02   1.750000E-02   1.750000E-02   1.750000E-02   1.750000E-02   1.750000E-02   1.750000E-02   1.750000E-02   1.750000E-02   1.750000E-02   1.750000E-02   1.750000E-02   1.750000E-02   1.750000E-02   1.750000E-02   1.750000E-02   1.750000E-02   1.750000E-02   1.750000E-02   1.750000E-02   1.750000E-02   1.750000E-02   1.750000E-02   1.750000E-02   1.750000E-02   1.750000E-02   1.750000E-02   1.750000E-02   1.750000E-02   1.750000E-02   1.750000E-02   1.750000E-02   1.750000E-02   1.750000E-02   1.750000E-02   1.750000E-02   1.750000E-02   1.750000E-02   1.750000E-02   1.750000E-02   1.750000E-02   1.750000E-02   1.750000E-02   1.750000E-02   1.750000E-02   1.750000E-02   1.750000E-02   1.750000E-02   1.750000E-02   1.750000E-02   1.750000E-02   1.750000E-02   1.750000E-02   1.750000E-02   1.750000E-02   1.750000E-02   1.750000E-02   1.750000E-02   1.750000E-02   1.750000E-02   1.750000E-02   1.750000E-02   1.750000E-02   1.750000E-02   1.750000E-02   1.750000E-02   1.750000E-02   1.750000E-02   1.750000E-02   1.750000E-02   1.750000E-02   1.750000E-02   1.750000E-02   1.750000E-02   1.750000E-02   1.750000E-02   1.750000E-02   1.750000E-02   1.750000E-02   1.750000E-02   1.750000E-02   1.750000E-02   1.750000E-02   1.750000E-02   1.750000E-02   1.750000E-02   1.750000E-02   1.750000E-02   1.750000E-02   1.750000E-02   1.750000E-02   1.750000E-02   1.750000E-02   1.750000E-02   1.750000E-02   1.750000E-02   1.750000E-02   1.750000E-02   1.750000E-02   1.750000E-02   1.750000E-02   1.750000E-02   1.750000E-02   1.750000E-02   1.750000E-02   1.750000E-02   1.750000E-02   1.750000E-02   1.750000E-02   1.750000E-02   1.750000E-02   1.750000E-02   1.750000E-02   1.750000E-02   1.750000E-02   1.750000E-02   1.750000E-02   1.750000E-02   1.750000E-02   1.750000E-02   1.750000E-02   1.750000E-02   1.750000E-02   1.750000E-02   1.750000E-02   1.750000E-02   1.750000E-02   1.750000E-02   1.750000E-02   1.750000E-02   1.750000E-02   1.750000E-02   1.750000E-02   1.750000E-02   1.750000E-02   1.750000E-02   1.750000E-02   1.750000E-02   1.750000E-02   1.750000E-02   1.750000E-02   1.750000E-02   1.750000E-02   1.750000E-02   1.750000E-02   1.750000E-02
   1.750000E-02   1.750000E-02   1.750000E-02   1.750000E-02   1.750000E-02   1.750000E-02   1.750000E-02   1.750000E-02   1.750000E-02   1.750000E-02   1.750000E-02   1.750000E-02   1.750000E-02   1.750000E-02   1.750000E-02   1.750000E-02   1.750000E-02   1.750000E-02   1.750000E-02   1.750000E-02   1.750000E-02   1.750000E-02   1.750000E-02   1.750000E-02   1.750000E-02   1.750000E-02   1.750000E-02   1.750000E-02   1.750000E-02   1.750000E-02   1.750000E-02   1.750000E-02   1.750000E-02   1.750000E-02   1.750000E-02   1.750000E-02   1.750000E-02   1.750000E-02   1.750000E-02   1.750000E-02   1.750000E-02   1.750000E-02   1.750000E-02   1.750000E-02   1.750000E-02   1.750000E-02   1.750000E-02   1.750000E-02   1.750000E-02   1.750000E-02   1.750000E-02   1.750000E-02   1.750000E-02   1.750000E-02   1.750000E-02   1.750000E-02   1.750000E-02   1.750000E-02   1.750000E-02   1.750000E-02   1.750000E-02   1.750000E-02   1.750000E-02   1.750000E-02   1.750000E-02   1.750000E-02   1.750000E-02   1.750000E-02   1.750000E-02   1.750000E-02   1.750000E-02   1.750000E-02   1.750000E-02   1.750000E-02   1.750000E-02   1.750000E-02   1.750000E-02   1.750000E-02   1.750000E-02   1.750000E-02   1.750000E-02   1.750000E-02   1.750000E-02   1.750000E-02   1.750000E-02   1.750000E-02   1.750000E-02   1.750000E-02   1.750000E-02   1.750000E-02   1.750000E-02   1.750000E-02   1.750000E-02   1.750000E-02   1.750000E-02   1.750000E-02   1.750000E-02   1.750000E-02   1.750000E-02   1.750000E-02   1.750000E-02   1.750000E-02   1.750000E-02   1.750000E-02   1.750000E-02   1.750000E-02   1.750000E-02   1.750000E-02   1.750000E-02   1.750000E-02   1.750000E-02   1.750000E-02   1.750000E-02   1.750000E-02   1.750000E-02   1.750000E-02   1.750000E-02   1.750000E-02   1.750000E-02   1.750000E-02   1.750000E-02   1.750000E-02   1.750000E-02   1.750000E-02   1.750000E-02   1.750000E-02   1.750000E-02   1.750000E-02   1.750000E-02   1.750000E-02   1.750000E-02   1.750000E-02   1.750000E-02   1.750000E-02   1.750000E-02   1.750000E-02   1.750000E-02   1.750000E-02   1.750000E-02   1.750000E-02   1.750000E-02   1.750000E-02   1.750000E-02   1.750000E-02   1.750000E-02   1.750000E-02   1.750000E-02   1.750000E-02   1.750000E-02