# DIS package for MODFLOW-NWT generated by Flopy 3.3.6
         1       138       149         2         4         2
  0
INTERNAL               1 (149E15.6) -1 #delr                          
   5.000000E+01   5.000000E+01   5.000000E+01   5.000000E+01   5.000000E+01   5.000000E+01   5.000000E+01   5.000000E+01   5.000000E+01   5.000000E+01   5.000000E+01   5.000000E+01   5.000000E+01   5.000000E+01   5.000000E+01   5.000000E+01   5.000000E+01   5.000000E+01   5.000000E+01   5.000000E+01   5.000000E+01   5.000000E+01   5.000000E+01   5.000000E+01   5.000000E+01   5.000000E+01   5.000000E+01   5.000000E+01   5.000000E+01   5.000000E+01   5.000000E+01   5.000000E+01   5.000000E+01   5.000000E+01   5.000000E+01   5.000000E+01   5.000000E+01   5.000000E+01   5.000000E+01   5.000000E+01   5.000000E+01   5.000000E+01   5.000000E+01   5.000000E+01   5.000000E+01   5.000000E+01   5.000000E+01   5.000000E+01   5.000000E+01   5.000000E+01   5.000000E+01   5.000000E+01   5.000000E+01   5.000000E+01   5.000000E+01   5.000000E+01   5.000000E+01   5.000000E+01   5.000000E+01   5.000000E+01   5.000000E+01   5.000000E+01   5.000000E+01   5.000000E+01   5.000000E+01   5.000000E+01   5.000000E+01   5.000000E+01   5.000000E+01   5.000000E+01   5.000000E+01   5.000000E+01   5.000000E+01   5.000000E+01   5.000000E+01   5.000000E+01   5.000000E+01   5.000000E+01   5.000000E+01   5.000000E+01   5.000000E+01   5.000000E+01   5.000000E+01   5.000000E+01   5.000000E+01   5.000000E+01   5.000000E+01   5.000000E+01   5.000000E+01   5.000000E+01   5.000000E+01   5.000000E+01   5.000000E+01   5.000000E+01   5.000000E+01   5.000000E+01   5.000000E+01   5.000000E+01   5.000000E+01   5.000000E+01   5.000000E+01   5.000000E+01   5.000000E+01   5.000000E+01   5.000000E+01   5.000000E+01   5.000000E+01   5.000000E+01   5.000000E+01   5.000000E+01   5.000000E+01   5.000000E+01   5.000000E+01   5.000000E+01   5.000000E+01   5.000000E+01   5.000000E+01   5.000000E+01   5.000000E+01   5.000000E+01   5.000000E+01   5.000000E+01   5.000000E+01   5.000000E+01   5.000000E+01   5.000000E+01   5.000000E+01   5.000000E+01   5.000000E+01   5.000000E+01   5.000000E+01   5.000000E+01   5.000000E+01   5.000000E+01   5.000000E+01   5.000000E+01   5.000000E+01   5.000000E+01   5.000000E+01   5.000000E+01   5.000000E+01   5.000000E+01   5.000000E+01   5.000000E+01   5.000000E+01   5.000000E+01   5.000000E+01   5.000000E+01   5.000000E+01
INTERNAL               1 (138E15.6) -1 #delc                          
   5.000000E+01   5.000000E+01   5.000000E+01   5.000000E+01   5.000000E+01   5.000000E+01   5.000000E+01   5.000000E+01   5.000000E+01   5.000000E+01   5.000000E+01   5.000000E+01   5.000000E+01   5.000000E+01   5.000000E+01   5.000000E+01   5.000000E+01   5.000000E+01   5.000000E+01   5.000000E+01   5.000000E+01   5.000000E+01   5.000000E+01   5.000000E+01   5.000000E+01   5.000000E+01   5.000000E+01   5.000000E+01   5.000000E+01   5.000000E+01   5.000000E+01   5.000000E+01   5.000000E+01   5.000000E+01   5.000000E+01   5.000000E+01   5.000000E+01   5.000000E+01   5.000000E+01   5.000000E+01   5.000000E+01   5.000000E+01   5.000000E+01   5.000000E+01   5.000000E+01   5.000000E+01   5.000000E+01   5.000000E+01   5.000000E+01   5.000000E+01   5.000000E+01   5.000000E+01   5.000000E+01   5.000000E+01   5.000000E+01   5.000000E+01   5.000000E+01   5.000000E+01   5.000000E+01   5.000000E+01   5.000000E+01   5.000000E+01   5.000000E+01   5.000000E+01   5.000000E+01   5.000000E+01   5.000000E+01   5.000000E+01   5.000000E+01   5.000000E+01   5.000000E+01   5.000000E+01   5.000000E+01   5.000000E+01   5.000000E+01   5.000000E+01   5.000000E+01   5.000000E+01   5.000000E+01   5.000000E+01   5.000000E+01   5.000000E+01   5.000000E+01   5.000000E+01   5.000000E+01   5.000000E+01   5.000000E+01   5.000000E+01   5.000000E+01   5.000000E+01   5.000000E+01   5.000000E+01   5.000000E+01   5.000000E+01   5.000000E+01   5.000000E+01   5.000000E+01   5.000000E+01   5.000000E+01   5.000000E+01   5.000000E+01   5.000000E+01   5.000000E+01   5.000000E+01   5.000000E+01   5.000000E+01   5.000000E+01   5.000000E+01   5.000000E+01   5.000000E+01   5.000000E+01   5.000000E+01   5.000000E+01   5.000000E+01   5.000000E+01   5.000000E+01   5.000000E+01   5.000000E+01   5.000000E+01   5.000000E+01   5.000000E+01   5.000000E+01   5.000000E+01   5.000000E+01   5.000000E+01   5.000000E+01   5.000000E+01   5.000000E+01   5.000000E+01   5.000000E+01   5.000000E+01   5.000000E+01   5.000000E+01   5.000000E+01   5.000000E+01   5.000000E+01   5.000000E+01   5.000000E+01
INTERNAL               1 (149E15.6) -1 #model_top                     
   2.260340E+03   2.253768E+03   2.246127E+03   2.236950E+03   2.225142E+03   2.217799E+03   2.210429E+03   2.206694E+03   2.204599E+03   2.203236E+03   2.202288E+03   2.201876E+03   2.201876E+03   2.201949E+03   2.201892E+03   2.201667E+03   2.201667E+03   2.200899E+03   2.199607E+03   2.197460E+03   2.192445E+03   2.184805E+03   2.176428E+03   2.164620E+03   2.153466E+03   2.146990E+03   2.144844E+03   2.142944E+03   2.141041E+03   2.141041E+03   2.141950E+03   2.146441E+03   2.147589E+03   2.147597E+03   2.146960E+03   2.144409E+03   2.140902E+03   2.140158E+03   2.140158E+03   2.141108E+03   2.141895E+03   2.143189E+03   2.143634E+03   2.143080E+03   2.143080E+03   2.141983E+03   2.140121E+03   2.134630E+03   2.124241E+03   2.114858E+03   2.109000E+03   2.107650E+03   2.107650E+03   2.107708E+03   2.107708E+03   2.107782E+03   2.107213E+03   2.104433E+03   2.101692E+03   2.101692E+03   2.104204E+03   2.101468E+03   2.080744E+03   2.069886E+03   2.069886E+03   2.078378E+03   2.088800E+03   2.106759E+03   2.123151E+03   2.124422E+03   2.127213E+03   2.128050E+03   2.129328E+03   2.128545E+03   2.126519E+03   2.124599E+03   2.122731E+03   2.120733E+03   2.118993E+03   2.118165E+03   2.118165E+03   2.118756E+03   2.119310E+03   2.121277E+03   2.124050E+03   2.127884E+03   2.132114E+03   2.135850E+03   2.140365E+03   2.143073E+03   2.144615E+03   2.144393E+03   2.142622E+03   2.139589E+03   2.136211E+03   2.135324E+03   2.135324E+03   2.132870E+03   2.128622E+03   2.123780E+03   2.123780E+03   2.124783E+03   2.128271E+03   2.126893E+03   2.121234E+03   2.108733E+03   2.100680E+03   2.094181E+03   2.089308E+03   2.089308E+03   2.091259E+03   2.095439E+03   2.099317E+03   2.102711E+03   2.105384E+03   2.108216E+03   2.108931E+03   2.107994E+03   2.104905E+03   2.100768E+03   2.095588E+03   2.087706E+03   2.080570E+03   2.075436E+03   2.072115E+03   2.068376E+03   2.064013E+03   2.059671E+03   2.055766E+03   2.051569E+03   2.048239E+03   2.044544E+03   2.040384E+03   2.037777E+03   2.037777E+03   2.038891E+03   2.038749E+03   2.036838E+03   2.035456E+03   2.035456E+03   2.037915E+03   2.040325E+03   2.040293E+03   2.036131E+03   2.026505E+03   2.015949E+03   2.002960E+03   1.994439E+03   1.992642E+03
   2.271553E+03   2.265083E+03   2.256681E+03   2.246275E+03   2.239024E+03   2.231928E+03   2.222020E+03   2.212673E+03   2.207370E+03   2.206403E+03   2.207230E+03   2.207038E+03   2.205785E+03   2.205688E+03   2.205650E+03   2.205290E+03   2.204186E+03   2.202871E+03   2.200470E+03   2.198341E+03   2.194351E+03   2.186770E+03   2.177965E+03   2.165904E+03   2.154848E+03   2.148030E+03   2.145760E+03   2.144323E+03   2.142331E+03   2.141424E+03   2.146636E+03   2.148462E+03   2.149506E+03   2.149470E+03   2.148679E+03   2.147027E+03   2.144000E+03   2.142527E+03   2.142196E+03   2.142917E+03   2.144156E+03   2.145376E+03   2.147157E+03   2.147752E+03   2.148972E+03   2.149973E+03   2.145697E+03   2.135572E+03   2.122619E+03   2.117439E+03   2.112305E+03   2.112076E+03   2.111915E+03   2.111803E+03   2.112261E+03   2.113859E+03   2.113974E+03   2.111913E+03   2.107833E+03   2.108249E+03   2.111244E+03   2.103228E+03   2.078202E+03   2.069907E+03   2.073868E+03   2.085552E+03   2.103118E+03   2.125081E+03   2.134018E+03   2.131959E+03   2.132230E+03   2.133721E+03   2.132257E+03   2.130485E+03   2.127909E+03   2.125448E+03   2.123776E+03   2.122228E+03   2.120458E+03   2.119264E+03   2.119209E+03   2.119208E+03   2.119407E+03   2.120359E+03   2.122190E+03   2.125842E+03   2.130947E+03   2.135297E+03   2.139631E+03   2.144670E+03   2.145659E+03   2.146160E+03   2.146025E+03   2.144022E+03   2.143945E+03   2.144568E+03   2.142006E+03   2.139264E+03   2.135818E+03   2.135246E+03   2.134937E+03   2.135199E+03   2.134691E+03   2.131580E+03   2.126002E+03   2.116625E+03   2.106896E+03   2.100040E+03   2.094958E+03   2.092193E+03   2.092460E+03   2.094521E+03   2.097490E+03   2.100889E+03   2.105291E+03   2.108068E+03   2.110433E+03   2.111231E+03   2.110700E+03   2.106966E+03   2.102485E+03   2.095122E+03   2.085929E+03   2.079506E+03   2.074411E+03   2.070026E+03   2.065756E+03   2.062219E+03   2.059883E+03   2.055578E+03   2.051609E+03   2.047716E+03   2.044649E+03   2.042056E+03   2.041025E+03   2.041599E+03   2.041030E+03   2.039743E+03   2.039388E+03   2.040179E+03   2.042312E+03   2.042786E+03   2.040107E+03   2.033991E+03   2.023560E+03   2.014495E+03   2.006163E+03   1.999362E+03   1.992642E+03
   2.282014E+03   2.276115E+03   2.267937E+03   2.259752E+03   2.253002E+03   2.244100E+03   2.233110E+03   2.222499E+03   2.213359E+03   2.209859E+03   2.210803E+03   2.211211E+03   2.211222E+03   2.211518E+03   2.210521E+03   2.208191E+03   2.206455E+03   2.204648E+03   2.202208E+03   2.199213E+03   2.195060E+03   2.186990E+03   2.177520E+03   2.165585E+03   2.156253E+03   2.149894E+03   2.147257E+03   2.145830E+03   2.143731E+03   2.144336E+03   2.147440E+03   2.149940E+03   2.150899E+03   2.150624E+03   2.149686E+03   2.147549E+03   2.145119E+03   2.143779E+03   2.143932E+03   2.144479E+03   2.145805E+03   2.148561E+03   2.152898E+03   2.155281E+03   2.158080E+03   2.156768E+03   2.149329E+03   2.138781E+03   2.126749E+03   2.120751E+03   2.118278E+03   2.117791E+03   2.118104E+03   2.118284E+03   2.118269E+03   2.119323E+03   2.120309E+03   2.118856E+03   2.113847E+03   2.112827E+03   2.112946E+03   2.095428E+03   2.081159E+03   2.074065E+03   2.082224E+03   2.099889E+03   2.119244E+03   2.134904E+03   2.139454E+03   2.136753E+03   2.137574E+03   2.136798E+03   2.134178E+03   2.131717E+03   2.129158E+03   2.126862E+03   2.125162E+03   2.123261E+03   2.121710E+03   2.120598E+03   2.120496E+03   2.119708E+03   2.119312E+03   2.119642E+03   2.120994E+03   2.124273E+03   2.129751E+03   2.134228E+03   2.140399E+03   2.145825E+03   2.148177E+03   2.149011E+03   2.149783E+03   2.149109E+03   2.149630E+03   2.151257E+03   2.148469E+03   2.144379E+03   2.142546E+03   2.141588E+03   2.140390E+03   2.139039E+03   2.137393E+03   2.135336E+03   2.128452E+03   2.119522E+03   2.109469E+03   2.102912E+03   2.098772E+03   2.096027E+03   2.094366E+03   2.095020E+03   2.097079E+03   2.100413E+03   2.105302E+03   2.108704E+03   2.111998E+03   2.113993E+03   2.114714E+03   2.112783E+03   2.108812E+03   2.101589E+03   2.091110E+03   2.082182E+03   2.076426E+03   2.071804E+03   2.068288E+03   2.065420E+03   2.062850E+03   2.058199E+03   2.053832E+03   2.050527E+03   2.048015E+03   2.046268E+03   2.044666E+03   2.043435E+03   2.043557E+03   2.044495E+03   2.045831E+03   2.046892E+03   2.047284E+03   2.045713E+03   2.039927E+03   2.031668E+03   2.022391E+03   2.014751E+03   2.009098E+03   2.003295E+03   1.995845E+03
   2.292387E+03   2.286993E+03   2.279469E+03   2.271980E+03   2.265778E+03   2.257825E+03   2.244770E+03   2.230958E+03   2.220171E+03   2.214051E+03   2.215630E+03   2.218215E+03   2.219863E+03   2.219344E+03   2.218278E+03   2.213964E+03   2.209573E+03   2.206670E+03   2.204105E+03   2.200167E+03   2.195758E+03   2.187462E+03   2.177019E+03   2.163690E+03   2.157531E+03   2.153053E+03   2.150118E+03   2.148121E+03   2.145963E+03   2.146158E+03   2.147717E+03   2.150656E+03   2.152058E+03   2.151728E+03   2.150125E+03   2.147491E+03   2.145053E+03   2.144631E+03   2.145481E+03   2.146415E+03   2.149072E+03   2.153703E+03   2.158914E+03   2.164806E+03   2.166366E+03   2.159739E+03   2.148933E+03   2.141420E+03   2.134469E+03   2.129479E+03   2.125124E+03   2.125296E+03   2.124012E+03   2.123955E+03   2.123219E+03   2.126514E+03   2.127972E+03   2.126069E+03   2.121554E+03   2.116611E+03   2.109141E+03   2.092346E+03   2.086219E+03   2.079627E+03   2.089883E+03   2.111584E+03   2.132025E+03   2.147112E+03   2.145981E+03   2.142465E+03   2.141157E+03   2.138740E+03   2.135512E+03   2.133000E+03   2.130421E+03   2.128404E+03   2.126150E+03   2.124529E+03   2.123189E+03   2.122243E+03   2.121500E+03   2.120304E+03   2.119461E+03   2.119417E+03   2.120136E+03   2.122351E+03   2.128409E+03   2.133880E+03   2.140101E+03   2.145930E+03   2.149759E+03   2.151733E+03   2.152964E+03   2.155099E+03   2.157549E+03   2.160302E+03   2.158460E+03   2.149891E+03   2.146790E+03   2.144854E+03   2.142243E+03   2.140178E+03   2.137975E+03   2.135330E+03   2.128142E+03   2.120096E+03   2.111298E+03   2.105953E+03   2.100845E+03   2.098558E+03   2.097861E+03   2.096650E+03   2.098256E+03   2.101470E+03   2.105656E+03   2.109056E+03   2.113352E+03   2.117580E+03   2.120510E+03   2.118471E+03   2.113424E+03   2.104883E+03   2.093054E+03   2.083829E+03   2.078424E+03   2.073352E+03   2.070091E+03   2.067216E+03   2.063665E+03   2.059615E+03   2.055974E+03   2.052961E+03   2.050642E+03   2.048467E+03   2.046878E+03   2.045905E+03   2.046092E+03   2.047621E+03   2.049443E+03   2.051707E+03   2.051856E+03   2.048421E+03   2.041500E+03   2.031701E+03   2.023372E+03   2.017899E+03   2.012953E+03   2.005136E+03   1.997369E+03
   2.301316E+03   2.298512E+03   2.293466E+03   2.287413E+03   2.278229E+03   2.267881E+03   2.255156E+03   2.239858E+03   2.227256E+03   2.219438E+03   2.220295E+03   2.222516E+03   2.224563E+03   2.226311E+03   2.227338E+03   2.223385E+03   2.217073E+03   2.209576E+03   2.205679E+03   2.201100E+03   2.194684E+03   2.187173E+03   2.176293E+03   2.167088E+03   2.159712E+03   2.156142E+03   2.153412E+03   2.150130E+03   2.147919E+03   2.148539E+03   2.149640E+03   2.151366E+03   2.152416E+03   2.151940E+03   2.149811E+03   2.147229E+03   2.145704E+03   2.146158E+03   2.146966E+03   2.149823E+03   2.155869E+03   2.161910E+03   2.169039E+03   2.173416E+03   2.169762E+03   2.160283E+03   2.153536E+03   2.149340E+03   2.146195E+03   2.139107E+03   2.134857E+03   2.135821E+03   2.135402E+03   2.134159E+03   2.134222E+03   2.134780E+03   2.134158E+03   2.131233E+03   2.125958E+03   2.118673E+03   2.102690E+03   2.094962E+03   2.088707E+03   2.084121E+03   2.099412E+03   2.121416E+03   2.139225E+03   2.149791E+03   2.149553E+03   2.146335E+03   2.145402E+03   2.141394E+03   2.136284E+03   2.133507E+03   2.131328E+03   2.129474E+03   2.127288E+03   2.125905E+03   2.124599E+03   2.123583E+03   2.122452E+03   2.121365E+03   2.120206E+03   2.119929E+03   2.120125E+03   2.121898E+03   2.127250E+03   2.133410E+03   2.139454E+03   2.145425E+03   2.149979E+03   2.153943E+03   2.156502E+03   2.159432E+03   2.162380E+03   2.164125E+03   2.161932E+03   2.154013E+03   2.146747E+03   2.144154E+03   2.142145E+03   2.139810E+03   2.137235E+03   2.133567E+03   2.126705E+03   2.118836E+03   2.111011E+03   2.105581E+03   2.102481E+03   2.100830E+03   2.099934E+03   2.098964E+03   2.099898E+03   2.102926E+03   2.106605E+03   2.110347E+03   2.115662E+03   2.120485E+03   2.123433E+03   2.122496E+03   2.116728E+03   2.107840E+03   2.095858E+03   2.085570E+03   2.081060E+03   2.076157E+03   2.072432E+03   2.069920E+03   2.064493E+03   2.060149E+03   2.058007E+03   2.055531E+03   2.053001E+03   2.050406E+03   2.048307E+03   2.047083E+03   2.047840E+03   2.050351E+03   2.053752E+03   2.057425E+03   2.057552E+03   2.051693E+03   2.042547E+03   2.033560E+03   2.025227E+03   2.019324E+03   2.013939E+03   2.005911E+03   1.998638E+03
   2.314168E+03   2.313599E+03   2.307057E+03   2.298171E+03   2.288758E+03   2.278092E+03   2.266053E+03   2.250932E+03   2.234356E+03   2.225093E+03   2.224293E+03   2.227134E+03   2.229634E+03   2.232075E+03   2.236045E+03   2.234634E+03   2.227303E+03   2.217769E+03   2.209176E+03   2.202580E+03   2.194720E+03   2.189577E+03   2.182435E+03   2.170647E+03   2.162401E+03   2.157881E+03   2.155084E+03   2.152867E+03   2.151354E+03   2.151144E+03   2.151850E+03   2.152475E+03   2.153088E+03   2.152362E+03   2.149910E+03   2.147351E+03   2.146970E+03   2.149127E+03   2.152733E+03   2.158717E+03   2.164488E+03   2.169805E+03   2.175298E+03   2.175053E+03   2.169773E+03   2.163663E+03   2.159789E+03   2.154129E+03   2.148975E+03   2.144929E+03   2.142153E+03   2.140929E+03   2.141291E+03   2.140033E+03   2.140242E+03   2.140702E+03   2.139644E+03   2.136467E+03   2.130800E+03   2.118603E+03   2.105373E+03   2.098166E+03   2.089452E+03   2.091798E+03   2.105829E+03   2.123971E+03   2.139120E+03   2.151782E+03   2.158109E+03   2.153240E+03   2.149360E+03   2.144101E+03   2.138142E+03   2.134219E+03   2.132201E+03   2.130355E+03   2.128693E+03   2.127115E+03   2.125848E+03   2.124649E+03   2.123188E+03   2.121913E+03   2.120599E+03   2.120227E+03   2.120169E+03   2.121613E+03   2.126448E+03   2.132522E+03   2.138894E+03   2.145368E+03   2.150597E+03   2.155396E+03   2.158678E+03   2.162555E+03   2.166551E+03   2.166869E+03   2.162683E+03   2.151639E+03   2.144743E+03   2.141930E+03   2.139013E+03   2.136591E+03   2.133957E+03   2.130389E+03   2.124921E+03   2.117542E+03   2.109845E+03   2.106285E+03   2.104139E+03   2.102749E+03   2.101708E+03   2.101140E+03   2.102356E+03   2.104810E+03   2.108058E+03   2.111740E+03   2.117261E+03   2.122269E+03   2.125768E+03   2.125698E+03   2.120036E+03   2.112207E+03   2.101778E+03   2.092719E+03   2.085404E+03   2.081833E+03   2.077009E+03   2.072745E+03   2.066942E+03   2.062153E+03   2.061063E+03   2.058449E+03   2.054997E+03   2.052060E+03   2.049645E+03   2.048275E+03   2.048919E+03   2.052644E+03   2.057399E+03   2.062069E+03   2.062759E+03   2.055049E+03   2.044182E+03   2.033574E+03   2.024507E+03   2.019202E+03   2.012816E+03   2.007210E+03   2.001699E+03
   2.322589E+03   2.322736E+03   2.319247E+03   2.309854E+03   2.298890E+03   2.286423E+03   2.273994E+03   2.260113E+03   2.244766E+03   2.231635E+03   2.228820E+03   2.230825E+03   2.233974E+03   2.240518E+03   2.247619E+03   2.245772E+03   2.236458E+03   2.225879E+03   2.217023E+03   2.208979E+03   2.201038E+03   2.193563E+03   2.186119E+03   2.174650E+03   2.167718E+03   2.161532E+03   2.157721E+03   2.156161E+03   2.154416E+03   2.154199E+03   2.154342E+03   2.154516E+03   2.154974E+03   2.154869E+03   2.153450E+03   2.151849E+03   2.152895E+03   2.155954E+03   2.160062E+03   2.165537E+03   2.172105E+03   2.180228E+03   2.181081E+03   2.176729E+03   2.172828E+03   2.168122E+03   2.161431E+03   2.155223E+03   2.148939E+03   2.145557E+03   2.143709E+03   2.145398E+03   2.146674E+03   2.146607E+03   2.146057E+03   2.146805E+03   2.144150E+03   2.139740E+03   2.134042E+03   2.117567E+03   2.104004E+03   2.096301E+03   2.091345E+03   2.099598E+03   2.110555E+03   2.123600E+03   2.137173E+03   2.150070E+03   2.160649E+03   2.159315E+03   2.153283E+03   2.146302E+03   2.140440E+03   2.134741E+03   2.132991E+03   2.131364E+03   2.129794E+03   2.128054E+03   2.126636E+03   2.125280E+03   2.123656E+03   2.122258E+03   2.120885E+03   2.120438E+03   2.120268E+03   2.121529E+03   2.125968E+03   2.131885E+03   2.138614E+03   2.146133E+03   2.151406E+03   2.156470E+03   2.161218E+03   2.166406E+03   2.171194E+03   2.169641E+03   2.161919E+03   2.149612E+03   2.142123E+03   2.137303E+03   2.134833E+03   2.133483E+03   2.130882E+03   2.127109E+03   2.122572E+03   2.114632E+03   2.109912E+03   2.107536E+03   2.106028E+03   2.105173E+03   2.104435E+03   2.103761E+03   2.104983E+03   2.106646E+03   2.109207E+03   2.113382E+03   2.118446E+03   2.123483E+03   2.128214E+03   2.130054E+03   2.125540E+03   2.119500E+03   2.110981E+03   2.103009E+03   2.094141E+03   2.088089E+03   2.083397E+03   2.076848E+03   2.071822E+03   2.067320E+03   2.064264E+03   2.060675E+03   2.057384E+03   2.054123E+03   2.051590E+03   2.049769E+03   2.050005E+03   2.052236E+03   2.058757E+03   2.062557E+03   2.062334E+03   2.056753E+03   2.047188E+03   2.036412E+03   2.026151E+03   2.021159E+03   2.015251E+03   2.009068E+03   2.004017E+03
   2.332272E+03   2.332489E+03   2.327314E+03   2.320274E+03   2.307456E+03   2.294573E+03   2.282602E+03   2.268285E+03   2.253394E+03   2.240329E+03   2.235929E+03   2.235978E+03   2.240601E+03   2.246924E+03   2.257463E+03   2.253352E+03   2.245684E+03   2.236218E+03   2.226830E+03   2.216969E+03   2.207537E+03   2.199125E+03   2.192422E+03   2.184763E+03   2.175299E+03   2.167320E+03   2.159849E+03   2.157686E+03   2.156723E+03   2.156014E+03   2.156109E+03   2.155704E+03   2.156423E+03   2.157038E+03   2.158105E+03   2.158342E+03   2.159438E+03   2.162702E+03   2.168417E+03   2.175732E+03   2.184061E+03   2.184290E+03   2.182812E+03   2.179204E+03   2.173150E+03   2.165474E+03   2.158267E+03   2.151770E+03   2.147201E+03   2.145105E+03   2.145175E+03   2.147340E+03   2.149307E+03   2.149507E+03   2.149381E+03   2.149795E+03   2.148339E+03   2.143248E+03   2.134692E+03   2.116338E+03   2.101474E+03   2.096336E+03   2.099908E+03   2.105512E+03   2.112960E+03   2.122982E+03   2.136071E+03   2.148230E+03   2.159385E+03   2.161482E+03   2.156667E+03   2.149688E+03   2.144246E+03   2.137718E+03   2.134301E+03   2.132425E+03   2.130685E+03   2.128927E+03   2.127288E+03   2.125730E+03   2.123917E+03   2.122362E+03   2.121004E+03   2.120504E+03   2.120414E+03   2.121110E+03   2.125558E+03   2.132274E+03   2.139896E+03   2.148201E+03   2.153408E+03   2.159075E+03   2.163917E+03   2.169442E+03   2.173087E+03   2.169736E+03   2.159472E+03   2.145842E+03   2.137196E+03   2.133188E+03   2.131126E+03   2.129235E+03   2.126836E+03   2.123845E+03   2.120498E+03   2.114271E+03   2.111163E+03   2.109310E+03   2.108678E+03   2.107323E+03   2.105676E+03   2.105419E+03   2.106907E+03   2.108401E+03   2.110455E+03   2.114811E+03   2.119509E+03   2.124183E+03   2.128972E+03   2.133293E+03   2.134914E+03   2.127960E+03   2.119386E+03   2.111361E+03   2.102283E+03   2.094977E+03   2.087801E+03   2.081293E+03   2.076000E+03   2.070818E+03   2.066981E+03   2.062449E+03   2.059326E+03   2.056430E+03   2.053701E+03   2.052391E+03   2.052373E+03   2.053240E+03   2.057653E+03   2.061041E+03   2.059743E+03   2.056617E+03   2.051221E+03   2.042173E+03   2.032089E+03   2.025792E+03   2.020671E+03   2.011660E+03   2.002036E+03
   2.342914E+03   2.343651E+03   2.338306E+03   2.328370E+03   2.317027E+03   2.302405E+03   2.289244E+03   2.275391E+03   2.261223E+03   2.247785E+03   2.243106E+03   2.241912E+03   2.245870E+03   2.253383E+03   2.260461E+03   2.259693E+03   2.252490E+03   2.242611E+03   2.233753E+03   2.224402E+03   2.216410E+03   2.208578E+03   2.201021E+03   2.194137E+03   2.184770E+03   2.176071E+03   2.167812E+03   2.161289E+03   2.158433E+03   2.157122E+03   2.156974E+03   2.157334E+03   2.158371E+03   2.159378E+03   2.160938E+03   2.164059E+03   2.168003E+03   2.173370E+03   2.181856E+03   2.186069E+03   2.188695E+03   2.188086E+03   2.186085E+03   2.179164E+03   2.169233E+03   2.161041E+03   2.153056E+03   2.147128E+03   2.145676E+03   2.144604E+03   2.146010E+03   2.147192E+03   2.148772E+03   2.150673E+03   2.151373E+03   2.151277E+03   2.149937E+03   2.143889E+03   2.133939E+03   2.114285E+03   2.103366E+03   2.098547E+03   2.102899E+03   2.108805E+03   2.116583E+03   2.124094E+03   2.133257E+03   2.145268E+03   2.158155E+03   2.162735E+03   2.160770E+03   2.155517E+03   2.149580E+03   2.142731E+03   2.136043E+03   2.133370E+03   2.131602E+03   2.129683E+03   2.127816E+03   2.125939E+03   2.123988E+03   2.122317E+03   2.121056E+03   2.120505E+03   2.120510E+03   2.121060E+03   2.125373E+03   2.132333E+03   2.141563E+03   2.149572E+03   2.155396E+03   2.161149E+03   2.166621E+03   2.171879E+03   2.172611E+03   2.165947E+03   2.157070E+03   2.141058E+03   2.132338E+03   2.127381E+03   2.125868E+03   2.125135E+03   2.123382E+03   2.121625E+03   2.118594E+03   2.114104E+03   2.112169E+03   2.111022E+03   2.110121E+03   2.109348E+03   2.108388E+03   2.107257E+03   2.108229E+03   2.109309E+03   2.111805E+03   2.116609E+03   2.121001E+03   2.125681E+03   2.129943E+03   2.134801E+03   2.136532E+03   2.132249E+03   2.125524E+03   2.116519E+03   2.107483E+03   2.098746E+03   2.091214E+03   2.085751E+03   2.080294E+03   2.074644E+03   2.069539E+03   2.064324E+03   2.060934E+03   2.057376E+03   2.054277E+03   2.052268E+03   2.052042E+03   2.053509E+03   2.056163E+03   2.058046E+03   2.058875E+03   2.060052E+03   2.058419E+03   2.048769E+03   2.039237E+03   2.032756E+03   2.026869E+03   2.011784E+03   1.998406E+03
   2.345178E+03   2.345926E+03   2.343073E+03   2.333727E+03   2.322261E+03   2.309214E+03   2.296091E+03   2.282125E+03   2.267966E+03   2.254955E+03   2.250069E+03   2.247599E+03   2.251539E+03   2.259437E+03   2.265454E+03   2.265081E+03   2.258067E+03   2.249522E+03   2.241034E+03   2.232598E+03   2.224591E+03   2.216523E+03   2.208305E+03   2.202198E+03   2.194987E+03   2.185215E+03   2.176593E+03   2.169417E+03   2.161885E+03   2.158513E+03   2.158510E+03   2.158707E+03   2.161114E+03   2.164299E+03   2.168281E+03   2.173372E+03   2.178448E+03   2.184765E+03   2.191750E+03   2.191846E+03   2.193290E+03   2.194077E+03   2.186631E+03   2.175129E+03   2.164376E+03   2.154421E+03   2.146954E+03   2.145604E+03   2.144597E+03   2.143662E+03   2.144954E+03   2.146874E+03   2.148051E+03   2.149830E+03   2.152042E+03   2.152747E+03   2.151025E+03   2.142093E+03   2.128479E+03   2.112560E+03   2.105108E+03   2.100731E+03   2.103595E+03   2.108516E+03   2.117834E+03   2.127298E+03   2.134362E+03   2.143614E+03   2.157387E+03   2.165183E+03   2.165730E+03   2.160239E+03   2.153838E+03   2.147950E+03   2.138891E+03   2.134142E+03   2.132083E+03   2.130205E+03   2.128354E+03   2.126052E+03   2.123922E+03   2.122345E+03   2.121306E+03   2.120505E+03   2.120505E+03   2.121103E+03   2.125861E+03   2.133565E+03   2.142968E+03   2.150510E+03   2.156450E+03   2.161273E+03   2.166412E+03   2.170001E+03   2.169391E+03   2.162805E+03   2.150179E+03   2.134142E+03   2.125304E+03   2.122378E+03   2.122227E+03   2.122220E+03   2.121102E+03   2.119849E+03   2.117011E+03   2.113927E+03   2.112672E+03   2.111955E+03   2.111868E+03   2.111556E+03   2.110614E+03   2.109472E+03   2.109392E+03   2.109837E+03   2.112914E+03   2.117310E+03   2.121932E+03   2.126257E+03   2.131020E+03   2.133909E+03   2.133524E+03   2.129158E+03   2.123330E+03   2.115406E+03   2.108093E+03   2.099568E+03   2.093504E+03   2.088149E+03   2.082764E+03   2.077225E+03   2.072316E+03   2.066353E+03   2.062586E+03   2.058124E+03   2.053121E+03   2.050768E+03   2.050001E+03   2.050626E+03   2.052957E+03   2.056410E+03   2.060144E+03   2.062985E+03   2.065303E+03   2.062207E+03   2.048932E+03   2.040043E+03   2.027687E+03   2.010665E+03   1.994891E+03
   2.348645E+03   2.347177E+03   2.344031E+03   2.337189E+03   2.326650E+03   2.314876E+03   2.302063E+03   2.288494E+03   2.276169E+03   2.263733E+03   2.258236E+03   2.253483E+03   2.254740E+03   2.263976E+03   2.272162E+03   2.273179E+03   2.264679E+03   2.256282E+03   2.247638E+03   2.239403E+03   2.231745E+03   2.224582E+03   2.216027E+03   2.207811E+03   2.201104E+03   2.194192E+03   2.186733E+03   2.177490E+03   2.169396E+03   2.162064E+03   2.161616E+03   2.163218E+03   2.168099E+03   2.172151E+03   2.175549E+03   2.181583E+03   2.190960E+03   2.198400E+03   2.197125E+03   2.195480E+03   2.196754E+03   2.194301E+03   2.181112E+03   2.168828E+03   2.159397E+03   2.147600E+03   2.145547E+03   2.144466E+03   2.143417E+03   2.143146E+03   2.144505E+03   2.146247E+03   2.147616E+03   2.148676E+03   2.150639E+03   2.151051E+03   2.147406E+03   2.137364E+03   2.121939E+03   2.113763E+03   2.107248E+03   2.102525E+03   2.104961E+03   2.109745E+03   2.117155E+03   2.127393E+03   2.137386E+03   2.145843E+03   2.156188E+03   2.166042E+03   2.170952E+03   2.163889E+03   2.157022E+03   2.150782E+03   2.142203E+03   2.134894E+03   2.132957E+03   2.131063E+03   2.129383E+03   2.126984E+03   2.124908E+03   2.123235E+03   2.121957E+03   2.120540E+03   2.120505E+03   2.121031E+03   2.126697E+03   2.134896E+03   2.144168E+03   2.150750E+03   2.156043E+03   2.160710E+03   2.164360E+03   2.166655E+03   2.164942E+03   2.158863E+03   2.147159E+03   2.130891E+03   2.122326E+03   2.121822E+03   2.121352E+03   2.120978E+03   2.119635E+03   2.118600E+03   2.116029E+03   2.113716E+03   2.112925E+03   2.112500E+03   2.113031E+03   2.113313E+03   2.112739E+03   2.111926E+03   2.110748E+03   2.110770E+03   2.113507E+03   2.117788E+03   2.122426E+03   2.126913E+03   2.130644E+03   2.132567E+03   2.131240E+03   2.125675E+03   2.119718E+03   2.113566E+03   2.106668E+03   2.098964E+03   2.093918E+03   2.088909E+03   2.083875E+03   2.078515E+03   2.073008E+03   2.067283E+03   2.062490E+03   2.057327E+03   2.051169E+03   2.048715E+03   2.047901E+03   2.048320E+03   2.050767E+03   2.054717E+03   2.060293E+03   2.063156E+03   2.062704E+03   2.062939E+03   2.056914E+03   2.041519E+03   2.020466E+03   2.003856E+03   1.992045E+03