# SFR package for MODFLOW-NWT generated by Flopy 3.3.6
OPTIONS
REACHINPUT
END
350 17 0 0 86400.00000000 0.00010000 0 0 1 
1 110 132 1 1 841.5811 2074.531 0.005868674 1.0 0.1
1 109 133 1 2 60.35534 2069.592 0.12364922 1.0 0.1
1 108 133 1 3 50.0 2062.1292 0.12639648 1.0 0.1
1 107 133 1 4 50.0 2055.8093 0.119213864 1.0 0.1
1 106 133 1 5 50.0 2049.8486 0.12406006 1.0 0.1
1 105 133 1 6 50.0 2043.6456 0.11100342 1.0 0.1
1 104 133 1 7 50.0 2038.0955 0.15124023 1.0 0.1
1 103 133 1 8 50.0 2030.5334 0.12595947 1.0 0.1
1 102 133 1 9 60.35534 2024.2355 0.15731823 1.0 0.1
1 101 132 1 10 60.35534 2014.7405 0.0796451 1.0 0.1
1 100 132 1 11 50.0 2009.9335 0.07746826 1.0 0.1
1 99 132 1 12 60.35534 2006.06 0.09505676 1.0 0.1
1 98 131 1 13 60.35534 2000.3229 0.05212457 1.0 0.1
1 97 131 1 14 50.0 1997.1769 0.045722656 1.0 0.1
1 96 131 1 15 50.0 1994.8907 0.06727539 1.0 0.1
1 95 131 1 16 50.0 1991.527 0.07492432 1.0 0.1
1 94 131 1 17 50.0 1987.7808 0.083613284 1.0 0.1
1 93 131 1 18 50.0 1983.6001 0.074221194 1.0 0.1
1 92 131 1 19 50.0 1979.889 0.09336426 1.0 0.1
1 91 131 1 20 50.0 1975.2208 0.08294433 1.0 0.1
1 90 131 1 21 50.0 1971.0736 0.07500488 1.0 0.1
1 89 131 1 22 60.35534 1967.3234 0.05430283 1.0 0.1
1 88 132 1 23 60.35534 1964.0459 0.05067442 1.0 0.1
1 87 132 1 24 50.0 1960.9874 0.09255371 1.0 0.1
1 86 132 1 25 50.0 1956.3597 0.057316896 1.0 0.1
1 85 132 1 26 50.0 1953.4939 0.052019045 1.0 0.1
1 84 132 1 27 60.35534 1950.893 0.057668317 1.0 0.1
1 83 133 1 28 60.35534 1947.4124 0.038715214 1.0 0.1
1 82 133 1 29 60.35534 1945.0757 0.05538084 1.0 0.1
1 81 134 1 30 70.71068 1941.7332 0.03672605 1.0 0.1
1 80 135 1 31 60.35534 1939.1362 0.026978489 1.0 0.1
1 79 135 1 32 25.0 1937.5079 0.001 1.0 0.1
1 107 69 2 1 1000.0 2144.218 0.002494629 1.0 0.1
1 106 69 2 2 60.35534 2141.7234 0.051865686 1.0 0.1
1 105 70 2 3 60.35534 2138.593 0.030143745 1.0 0.1
1 104 70 2 4 50.0 2136.7737 0.031391602 1.0 0.1
1 103 70 2 5 50.0 2135.204 0.026479492 1.0 0.1
1 102 70 2 6 50.0 2133.8801 0.04208008 1.0 0.1
1 101 70 2 7 50.0 2131.7761 0.025800781 1.0 0.1
1 100 70 2 8 50.0 2130.486 0.024746094 1.0 0.1
1 99 70 2 9 60.35534 2129.2488 0.02865921 1.0 0.1
1 98 71 2 10 60.35534 2127.519 0.020294037 1.0 0.1
1 97 71 2 11 50.0 2126.2942 0.026684571 1.0 0.1
1 96 71 2 12 50.0 2124.96 0.02671875 1.0 0.1
1 95 71 2 13 60.35534 2123.624 0.03765541 1.0 0.1
1 94 70 2 14 60.35534 2121.3513 0.026240267 1.0 0.1
1 93 70 2 15 60.35534 2119.7676 0.04231531 1.0 0.1
1 92 69 2 16 70.71068 2117.2136 0.03239985 1.0 0.1
1 91 68 2 17 60.35534 2114.9226 0.03474297 1.0 0.1
1 91 67 2 18 60.35534 2112.8257 0.05178883 1.0 0.1
1 90 66 2 19 60.35534 2109.7 0.04208879 1.0 0.1
1 89 66 2 20 50.0 2107.1597 0.03331543 1.0 0.1
1 88 66 2 21 50.0 2105.494 0.03864746 1.0 0.1
1 87 66 2 22 50.0 2103.5615 0.023754884 1.0 0.1
1 86 66 2 23 60.35534 2102.3738 0.06290464 1.0 0.1
1 85 67 2 24 60.35534 2098.5771 0.04932539 1.0 0.1
1 84 67 2 25 50.0 2095.6 0.057524413 1.0 0.1
1 83 67 2 26 50.0 2092.7239 0.06818847 1.0 0.1
1 82 67 2 27 50.0 2089.3145 0.053935546 1.0 0.1
1 81 67 2 28 60.35534 2086.6177 0.058050573 1.0 0.1
1 80 68 2 29 60.35534 2083.114 0.065558195 1.0 0.1
1 79 68 2 30 50.0 2079.1572 0.07054199 1.0 0.1
1 78 68 2 31 60.35534 2075.6301 0.05695032 1.0 0.1
1 77 69 2 32 60.35534 2072.1929 0.026284764 1.0 0.1
1 76 69 2 33 50.0 2070.6064 0.02550293 1.0 0.1
1 75 69 2 34 50.0 2069.3313 0.062719725 1.0 0.1
1 74 69 2 35 50.0 2066.1953 0.06838379 1.0 0.1
1 73 69 2 36 60.35534 2062.7761 0.033731706 1.0 0.1
1 72 68 2 37 60.35534 2060.7402 0.037254952 1.0 0.1
1 71 68 2 38 50.0 2058.4917 0.039296877 1.0 0.1
1 70 68 2 39 60.35534 2056.5269 0.06757668 1.0 0.1
1 69 69 2 40 35.35534 2052.4482 0.001 1.0 0.1
1 103 91 3 1 937.41437 2147.1602 0.00826638 1.0 0.1
1 102 91 3 2 60.35534 2139.4111 0.11615373 1.0 0.1
1 101 90 3 3 60.35534 2132.4006 0.13079683 1.0 0.1
1 100 90 3 4 60.35534 2124.5063 0.058786776 1.0 0.1
1 99 89 3 5 70.71068 2120.9583 0.033383865 1.0 0.1
1 98 88 3 6 70.71068 2118.5977 0.03055958 1.0 0.1
1 97 87 3 7 60.35534 2116.4368 0.025580924 1.0 0.1
1 96 87 3 8 50.0 2114.8928 0.024516601 1.0 0.1
1 95 87 3 9 60.35534 2113.667 0.04208879 1.0 0.1
1 94 86 3 10 70.71068 2111.1267 0.036591396 1.0 0.1
1 93 85 3 11 70.71068 2108.5393 0.021178676 1.0 0.1
1 92 84 3 12 60.35534 2107.0417 0.029209338 1.0 0.1
1 91 84 3 13 60.35534 2105.2788 0.03853319 1.0 0.1
1 90 83 3 14 60.35534 2102.9531 0.01113199 1.0 0.1
1 89 83 3 15 50.0 2102.2812 0.023623047 1.0 0.1
1 88 83 3 16 50.0 2101.1 0.07966308 1.0 0.1
1 87 83 3 17 50.0 2097.117 0.12102051 1.0 0.1
1 86 83 3 18 50.0 2091.066 0.10696778 1.0 0.1
1 85 83 3 19 50.0 2085.7175 0.08847168 1.0 0.1
1 84 83 3 20 50.0 2081.294 0.10205078 1.0 0.1
1 83 83 3 21 50.0 2076.1914 0.08091309 1.0 0.1
1 82 83 3 22 50.0 2072.1458 0.068295896 1.0 0.1
1 81 83 3 23 60.35534 2068.731 0.09458146 1.0 0.1
1 80 82 3 24 60.35534 2063.0225 0.078745075 1.0 0.1
1 79 82 3 25 60.35534 2058.2698 0.09247803 1.0 0.1
1 78 81 3 26 60.35534 2052.6882 0.08660259 1.0 0.1
1 77 81 3 27 50.0 2047.4613 0.06104248 1.0 0.1
1 76 81 3 28 50.0 2044.4092 0.08171143 1.0 0.1
1 75 81 3 29 60.35534 2040.3236 0.099140234 1.0 0.1
1 74 82 3 30 60.35534 2034.34 0.055619497 1.0 0.1
1 73 82 3 31 60.35534 2030.983 0.087537 1.0 0.1
1 72 83 3 32 60.35534 2025.6997 0.057403367 1.0 0.1
1 71 83 3 33 50.0 2022.2351 0.060161132 1.0 0.1
1 70 83 3 34 60.35534 2019.227 0.07547869 1.0 0.1
1 69 84 3 35 60.35534 2014.6715 0.03407958 1.0 0.1
1 68 84 3 36 25.0 2012.6146 0.001 1.0 0.1
1 98 21 4 1 1241.8481 2390.4207 0.004143034 1.0 0.1
1 97 22 4 2 70.71068 2385.2756 0.0885886 1.0 0.1
1 96 23 4 3 60.35534 2379.0115 0.10857735 1.0 0.1
1 95 23 4 4 50.0 2372.4583 0.110087894 1.0 0.1
1 94 23 4 5 60.35534 2366.9539 0.10195964 1.0 0.1
1 93 24 4 6 70.71068 2360.8 0.0764939 1.0 0.1
1 92 25 4 7 70.71068 2355.391 0.071187146 1.0 0.1
1 91 26 4 8 60.35534 2350.3574 0.059806127 1.0 0.1
1 91 27 4 9 50.0 2346.7478 0.063828126 1.0 0.1
1 91 28 4 10 60.35534 2343.5564 0.08834803 1.0 0.1
1 90 29 4 11 60.35534 2338.224 0.04631587 1.0 0.1
1 90 30 4 12 60.35534 2335.4287 0.062937 1.0 0.1
1 89 31 4 13 60.35534 2331.6301 0.07153679 1.0 0.1
1 89 32 4 14 50.0 2327.3125 0.0734375 1.0 0.1
1 89 33 4 15 50.0 2323.6406 0.11173828 1.0 0.1
1 89 34 4 16 50.0 2318.0537 0.06683105 1.0 0.1
1 89 35 4 17 50.0 2314.7122 0.061982423 1.0 0.1
1 89 36 4 18 60.35534 2311.613 0.18749636 1.0 0.1
1 88 37 4 19 60.35534 2300.2966 0.115963615 1.0 0.1
1 88 38 4 20 60.35534 2293.2976 0.2490176 1.0 0.1
1 87 39 4 21 70.71068 2278.268 0.18880235 1.0 0.1
1 86 40 4 22 70.71068 2264.9177 0.17479487 1.0 0.1
1 85 41 4 23 70.71068 2252.5579 0.19135731 1.0 0.1
1 84 42 4 24 70.71068 2239.0269 0.13623199 1.0 0.1
1 83 43 4 25 70.71068 2229.3938 0.22204465 1.0 0.1
1 82 44 4 26 60.35534 2213.6929 0.13408546 1.0 0.1
1 82 45 4 27 50.0 2205.6 0.1411963 1.0 0.1
1 82 46 4 28 50.0 2198.5403 0.13420898 1.0 0.1
1 82 47 4 29 50.0 2191.8298 0.15836914 1.0 0.1
1 82 48 4 30 50.0 2183.9114 0.11779785 1.0 0.1
1 82 49 4 31 50.0 2178.0215 0.10459473 1.0 0.1
1 82 50 4 32 60.35534 2172.7917 0.1457595 1.0 0.1
1 81 51 4 33 60.35534 2163.9944 0.10527254 1.0 0.1
1 81 52 4 34 60.35534 2157.6406 0.14097823 1.0 0.1
1 80 53 4 35 70.71068 2149.1318 0.13498558 1.0 0.1
1 79 54 4 36 70.71068 2139.587 0.1258291 1.0 0.1
1 78 55 4 37 70.71068 2130.6895 0.097765796 1.0 0.1
1 77 56 4 38 70.71068 2123.7764 0.11349961 1.0 0.1
1 76 57 4 39 60.35534 2115.7507 0.06445389 1.0 0.1
1 75 57 4 40 60.35534 2111.8606 0.118269295 1.0 0.1
1 74 58 4 41 70.71068 2104.7224 0.10545489 1.0 0.1
1 73 59 4 42 70.71068 2097.2656 0.12025994 1.0 0.1
1 72 60 4 43 35.35534 2088.762 0.001 1.0 0.1
1 94 110 5 1 527.4938 2040.0171 0.0052573006 1.0 0.1
1 93 110 5 2 50.0 2037.2439 0.10420166 1.0 0.1
1 92 110 5 3 50.0 2032.0338 0.075700685 1.0 0.1
1 91 110 5 4 60.35534 2028.2488 0.07871271 1.0 0.1
1 90 111 5 5 60.35534 2023.498 0.07370089 1.0 0.1
1 89 111 5 6 50.0 2019.0498 0.081848145 1.0 0.1
1 88 111 5 7 50.0 2014.9574 0.075979 1.0 0.1
1 87 111 5 8 50.0 2011.1584 0.049609374 1.0 0.1
1 86 111 5 9 60.35534 2008.678 0.07158533 1.0 0.1
1 85 110 5 10 60.35534 2004.3574 0.05875239 1.0 0.1
1 84 110 5 11 50.0 2000.8114 0.068581544 1.0 0.1
1 83 110 5 12 50.0 1997.3823 0.056311034 1.0 0.1
1 82 110 5 13 50.0 1994.5668 0.06105957 1.0 0.1
1 81 110 5 14 60.35534 1991.5138 0.07352493 1.0 0.1
1 80 111 5 15 60.35534 1987.0762 0.066743396 1.0 0.1
1 79 111 5 16 50.0 1983.0479 0.06885254 1.0 0.1
1 78 111 5 17 50.0 1979.6052 0.06092285 1.0 0.1
1 77 111 5 18 50.0 1976.5591 0.05744873 1.0 0.1
1 76 111 5 19 50.0 1973.6866 0.054648437 1.0 0.1
1 75 111 5 20 50.0 1970.9542 0.0694873 1.0 0.1
1 74 111 5 21 25.0 1967.4799 0.001 1.0 0.1
1 73 48 6 1 353.82367 2148.862 0.018768867 1.0 0.1
1 73 49 6 2 50.0 2142.2212 0.13602051 1.0 0.1
1 73 50 6 3 60.35534 2135.4202 0.11149788 1.0 0.1
1 72 51 6 4 60.35534 2128.6907 0.06783961 1.0 0.1
1 72 52 6 5 60.35534 2124.5962 0.104952976 1.0 0.1
1 71 53 6 6 60.35534 2118.2617 0.063988715 1.0 0.1
1 71 54 6 7 50.0 2114.3997 0.09293457 1.0 0.1
1 71 55 6 8 50.0 2109.753 0.10885742 1.0 0.1
1 71 56 6 9 50.0 2104.31 0.09622559 1.0 0.1
1 71 57 6 10 50.0 2099.4988 0.08758789 1.0 0.1
1 71 58 6 11 50.0 2095.1194 0.08614258 1.0 0.1
1 71 59 6 12 50.0 2090.8123 0.0915625 1.0 0.1
1 71 60 6 13 25.0 2086.2341 0.001 1.0 0.1
1 71 61 7 1 309.31076 2083.0906 0.013066949 1.0 0.1
1 70 62 7 2 60.35534 2079.0488 0.05411069 1.0 0.1
1 70 63 7 3 60.35534 2075.783 0.09149913 1.0 0.1
1 69 64 7 4 60.35534 2070.2605 0.07012102 1.0 0.1
1 69 65 7 5 50.0 2066.0283 0.06334961 1.0 0.1
1 69 66 7 6 50.0 2062.8608 0.08815918 1.0 0.1
1 69 67 7 7 50.0 2058.453 0.09244141 1.0 0.1
1 69 68 7 8 25.0 2053.8308 0.001 1.0 0.1
1 68 69 8 1 496.49118 2049.1367 0.0052042464 1.0 0.1
1 67 70 8 2 70.71068 2046.5529 0.0678864 1.0 0.1
1 66 71 8 3 70.71068 2041.7526 0.055715732 1.0 0.1
1 65 72 8 4 60.35534 2037.8129 0.018932877 1.0 0.1
1 65 73 8 5 60.35534 2036.6702 0.05945421 1.0 0.1
1 64 74 8 6 60.35534 2033.0818 0.040723585 1.0 0.1
1 64 75 8 7 50.0 2030.6239 0.048146974 1.0 0.1
1 64 76 8 8 50.0 2028.2166 0.041535646 1.0 0.1
1 64 77 8 9 50.0 2026.1398 0.043623045 1.0 0.1
1 64 78 8 10 50.0 2023.9586 0.035927735 1.0 0.1
1 64 79 8 11 60.35534 2022.1622 0.032815505 1.0 0.1
1 65 80 8 12 60.35534 2020.1816 0.025791267 1.0 0.1
1 65 81 8 13 60.35534 2018.625 0.039445348 1.0 0.1
1 66 82 8 14 60.35534 2016.2443 0.029134504 1.0 0.1
1 66 83 8 15 60.35534 2014.4858 0.045229774 1.0 0.1
1 67 84 8 16 35.35534 2011.756 0.001 1.0 0.1
1 67 85 9 1 521.96155 2009.6927 0.0042704367 1.0 0.1
1 67 86 9 2 50.0 2007.4637 0.046245117 1.0 0.1
1 67 87 9 3 60.35534 2005.1515 0.048797514 1.0 0.1
1 68 88 9 4 60.35534 2002.2063 0.052789982 1.0 0.1
1 68 89 9 5 60.35534 1999.0201 0.09680624 1.0 0.1
1 69 90 9 6 60.35534 1993.1774 0.049661133 1.0 0.1
1 69 91 9 7 60.35534 1990.18 0.023311649 1.0 0.1
1 70 92 9 8 60.35534 1988.7731 0.027957393 1.0 0.1
1 70 93 9 9 50.0 1987.0857 0.031484377 1.0 0.1
1 70 94 9 10 50.0 1985.5115 0.02605957 1.0 0.1
1 70 95 9 11 50.0 1984.2085 0.028232422 1.0 0.1
1 70 96 9 12 60.35534 1982.7969 0.030178128 1.0 0.1
1 71 97 9 13 60.35534 1980.9755 0.017925657 1.0 0.1
1 71 98 9 14 50.0 1979.8936 0.022858886 1.0 0.1
1 71 99 9 15 50.0 1978.7506 0.033737794 1.0 0.1
1 71 100 9 16 50.0 1977.0637 0.020717774 1.0 0.1
1 71 101 9 17 25.0 1976.0278 0.001 1.0 0.1
1 41 88 10 1 852.6473 2087.0212 0.0044639236 1.0 0.1
1 42 88 10 2 60.35534 2083.215 0.1491452 1.0 0.1
1 43 89 10 3 60.35534 2074.2134 0.09766379 1.0 0.1
1 44 89 10 4 50.0 2068.3188 0.12080078 1.0 0.1
1 45 89 10 5 50.0 2062.2788 0.11570801 1.0 0.1
1 46 89 10 6 50.0 2056.4934 0.10200195 1.0 0.1
1 47 89 10 7 50.0 2051.3933 0.08365723 1.0 0.1
1 48 89 10 8 50.0 2047.2104 0.08040283 1.0 0.1
1 49 89 10 9 60.35534 2043.1903 0.09819167 1.0 0.1
1 50 90 10 10 60.35534 2037.2639 0.050856445 1.0 0.1
1 51 90 10 11 60.35534 2034.1945 0.079901956 1.0 0.1
1 52 91 10 12 60.35534 2029.372 0.05041351 1.0 0.1
1 53 91 10 13 60.35534 2026.3292 0.06380466 1.0 0.1
1 54 92 10 14 70.71068 2022.4783 0.05523581 1.0 0.1
1 55 93 10 15 60.35534 2018.5725 0.0386869 1.0 0.1
1 56 93 10 16 60.35534 2016.2375 0.059310608 1.0 0.1
1 57 94 10 17 60.35534 2012.6578 0.02997992 1.0 0.1
1 58 94 10 18 60.35534 2010.8484 0.0549824 1.0 0.1
1 59 95 10 19 60.35534 2007.5299 0.046477675 1.0 0.1
1 60 95 10 20 50.0 2004.7247 0.0546167 1.0 0.1
1 61 95 10 21 50.0 2001.9939 0.050942384 1.0 0.1
1 62 95 10 22 50.0 1999.4468 0.03281006 1.0 0.1
1 63 95 10 23 60.35534 1997.8063 0.04073774 1.0 0.1
1 64 96 10 24 70.71068 1995.3475 0.03633072 1.0 0.1
1 65 97 10 25 60.35534 1992.7786 0.039028708 1.0 0.1
1 66 97 10 26 60.35534 1990.423 0.025198666 1.0 0.1
1 67 98 10 27 60.35534 1988.9021 0.046348233 1.0 0.1
1 67 99 10 28 60.35534 1986.1047 0.04903415 1.0 0.1
1 68 100 10 29 70.71068 1983.1453 0.048085332 1.0 0.1
1 69 101 10 30 70.71068 1979.7451 0.047664106 1.0 0.1
1 70 102 10 31 35.35534 1976.3748 0.001 1.0 0.1
1 71 102 11 1 346.363 1975.38 0.0024434293 1.0 0.1
1 72 103 11 2 70.71068 1974.5337 0.010459864 1.0 0.1
1 73 104 11 3 60.35534 1973.7941 0.009960947 1.0 0.1
1 73 105 11 4 50.0 1973.1929 0.017119141 1.0 0.1
1 73 106 11 5 50.0 1972.3369 0.012751465 1.0 0.1
1 73 107 11 6 50.0 1971.6993 0.013171387 1.0 0.1
1 73 108 11 7 50.0 1971.0408 0.024018554 1.0 0.1
1 73 109 11 8 50.0 1969.8398 0.022939453 1.0 0.1
1 73 110 11 9 50.0 1968.6929 0.01982666 1.0 0.1
1 73 111 11 10 25.0 1967.7015 0.001 1.0 0.1
1 74 112 12 1 488.46823 1966.1515 0.0025090391 1.0 0.1
1 74 113 12 2 50.0 1964.9259 0.029157715 1.0 0.1
1 74 114 12 3 50.0 1963.468 0.008903809 1.0 0.1
1 74 115 12 4 50.0 1963.0228 1e-04 1.0 0.1
1 74 116 12 5 50.0 1963.0994 0.0064501953 1.0 0.1
1 74 117 12 6 50.0 1962.7769 1e-04 1.0 0.1
1 74 118 12 7 50.0 1962.9166 0.017651368 1.0 0.1
1 74 119 12 8 60.35534 1962.034 0.03873342 1.0 0.1
1 75 120 12 9 60.35534 1959.6963 0.0026211953 1.0 0.1
1 75 121 12 10 60.35534 1959.5381 0.0058451034 1.0 0.1
1 74 122 12 11 70.71068 1959.1853 0.028277365 1.0 0.1
1 75 123 12 12 70.71068 1957.1858 0.06706293 1.0 0.1
1 76 124 12 13 60.35534 1952.4437 0.036856513 1.0 0.1
1 76 125 12 14 50.0 1950.2192 0.036696777 1.0 0.1
1 76 126 12 15 50.0 1948.3844 0.033117674 1.0 0.1
1 76 127 12 16 25.0 1946.7285 0.001 1.0 0.1
1 40 124 13 1 247.48738 2056.9846 0.0020193185 1.0 0.1
1 41 123 13 2 60.35534 2056.4849 0.00631433 1.0 0.1
1 41 122 13 3 50.0 2056.1038 0.012753907 1.0 0.1
1 41 121 13 4 50.0 2055.466 0.023569336 1.0 0.1
1 41 120 13 5 50.0 2054.2876 0.008740234 1.0 0.1
1 42 120 13 6 50.0 2053.8506 0.01425293 1.0 0.1
1 43 120 13 7 60.35534 2053.138 0.02605824 1.0 0.1
1 44 119 13 8 70.71068 2051.5652 0.03351852 1.0 0.1
1 45 118 13 9 35.35534 2049.195 0.001 1.0 0.1
1 34 111 14 1 372.3111 2085.08 0.003603967 1.0 0.1
1 35 111 14 2 60.35534 2083.7383 0.047132973 1.0 0.1
1 36 112 14 3 60.35534 2080.8936 0.03359013 1.0 0.1
1 37 112 14 4 60.35534 2078.8662 0.052723236 1.0 0.1
1 38 113 14 5 70.71068 2075.684 0.06816951 1.0 0.1
1 39 114 14 6 60.35534 2070.8638 0.08131773 1.0 0.1
1 40 114 14 7 60.35534 2065.9558 0.090568766 1.0 0.1
1 41 115 14 8 70.71068 2060.4895 0.05354055 1.0 0.1
1 42 116 14 9 70.71068 2056.7036 0.06484804 1.0 0.1
1 43 117 14 10 60.35534 2052.1182 0.023631208 1.0 0.1
1 44 117 14 11 50.0 2050.692 0.021811523 1.0 0.1
1 45 117 14 12 25.0 2049.6013 0.001 1.0 0.1
1 46 118 15 1 875.92474 2046.06 0.00028290413 1.0 0.1
1 47 118 15 2 50.0 2045.8123 0.0013256836 1.0 0.1
1 48 118 15 3 60.35534 2045.746 0.0014117239 1.0 0.1
1 49 119 15 4 60.35534 2045.6608 0.0039580856 1.0 0.1
1 49 120 15 5 50.0 2045.4219 0.0067016603 1.0 0.1
1 49 121 15 6 60.35534 2045.0868 0.0057985852 1.0 0.1
1 50 122 15 7 70.71068 2044.7368 0.009460315 1.0 0.1
1 51 123 15 8 60.35534 2044.0679 0.006975696 1.0 0.1
1 52 123 15 9 60.35534 2043.6469 0.017418005 1.0 0.1
1 53 124 15 10 60.35534 2042.5956 0.0070808674 1.0 0.1
1 54 124 15 11 50.0 2042.1682 0.040288087 1.0 0.1
1 55 124 15 12 50.0 2040.1538 0.046206053 1.0 0.1
1 56 124 15 13 60.35534 2037.8435 0.06793062 1.0 0.1
1 57 125 15 14 60.35534 2033.7435 0.03258696 1.0 0.1
1 58 125 15 15 50.0 2031.7767 0.06232422 1.0 0.1
1 59 125 15 16 60.35534 2028.6605 0.0835061 1.0 0.1
1 60 126 15 17 60.35534 2023.6205 0.071941294 1.0 0.1
1 61 126 15 18 60.35534 2019.2784 0.120856114 1.0 0.1
1 62 127 15 19 60.35534 2011.9841 0.049030103 1.0 0.1
1 63 127 15 20 50.0 2009.0249 0.06546387 1.0 0.1
1 64 127 15 21 50.0 2005.7517 0.069609374 1.0 0.1
1 65 127 15 22 60.35534 2002.2712 0.07075811 1.0 0.1
1 66 126 15 23 60.35534 1998.0006 0.17358541 1.0 0.1
1 67 126 15 24 50.0 1987.5238 0.16074951 1.0 0.1
1 68 126 15 25 50.0 1979.4863 0.10913818 1.0 0.1
1 69 126 15 26 50.0 1974.0294 0.109807126 1.0 0.1
1 70 126 15 27 50.0 1968.5391 0.07974365 1.0 0.1
1 71 126 15 28 50.0 1964.5519 0.09043457 1.0 0.1
1 72 126 15 29 50.0 1960.0302 0.068867184 1.0 0.1
1 73 126 15 30 50.0 1956.5868 0.075832516 1.0 0.1
1 74 126 15 31 60.35534 1952.7952 0.081540205 1.0 0.1
1 75 127 15 32 35.35534 1947.8738 0.001 1.0 0.1
1 76 128 16 1 291.51062 1944.8438 0.005216379 1.0 0.1
1 76 129 16 2 50.0 1943.3231 0.030358886 1.0 0.1
1 76 130 16 3 60.35534 1941.8052 0.032368526 1.0 0.1
1 77 131 16 4 60.35534 1939.8516 0.01357318 1.0 0.1
1 77 132 16 5 50.0 1939.0323 0.018134765 1.0 0.1
1 77 133 16 6 60.35534 1938.1256 0.022156784 1.0 0.1
1 78 134 16 7 60.35534 1936.7883 0.013518572 1.0 0.1
1 78 135 16 8 25.0 1935.9724 0.001 1.0 0.1
1 78 136 17 1 88.89088 1935.1844 0.010287093 1.0 0.1
1 78 137 17 2 50.0 1934.27 0.014448242 1.0 0.1
1 78 138 17 3 50.0 1933.5476 0.0138525395 1.0 0.1
1 78 139 17 4 60.35534 1932.855 0.030398583 1.0 0.1
1 77 140 17 5 60.35534 1931.0203 0.016704053 1.0 0.1
1 77 141 17 6 25.0 1930.0121 0.001 1.0 0.1
17 0 0
1 1 17 0 0 0 0 0 0.04 
10.0 
10.0 
2 1 8 0 0 0 0 0 0.04 
10.0 
10.0 
3 1 9 0 0 0 0 0 0.04 
10.0 
10.0 
4 1 7 0 0 0 0 0 0.04 
10.0 
10.0 
5 1 12 0 0 0 0 0 0.04 
10.0 
10.0 
6 1 7 0 0 0 0 0 0.04 
10.0 
10.0 
7 1 8 0 0 0 0 0 0.04 
10.0 
10.0 
8 1 9 0 0 0 0 0 0.04 
10.0 
10.0 
9 1 11 0 0 0 0 0 0.04 
10.0 
10.0 
10 1 11 0 0 0 0 0 0.04 
10.0 
10.0 
11 1 12 0 0 0 0 0 0.04 
10.0 
10.0 
12 1 16 0 0 0 0 0 0.04 
10.0 
10.0 
13 1 15 0 0 0 0 0 0.04 
10.0 
10.0 
14 1 15 0 0 0 0 0 0.04 
10.0 
10.0 
15 1 16 0 0 0 0 0 0.04 
10.0 
10.0 
16 1 17 0 0 0 0 0 0.04 
10.0 
10.0 
17 1 0 0 0 0 0 0 0.04 
10.0 
10.0 
-17 0 0
